MODEL 1
REMARK VINA RESULT:    -5.452      0.000      0.000
REMARK INTER + INTRA:          -6.908
REMARK INTER:                  -6.486
REMARK INTRA:                  -0.422
REMARK UNBOUND:                -0.181
REMARK  6 active torsions:
REMARK  status: ('A' for Active; 'I' for Inactive)
REMARK    1  A    between atoms: S_1  and  C_15 
REMARK    2  A    between atoms: O_3  and  C_10 
REMARK    3  A    between atoms: O_4  and  C_12 
REMARK    4  A    between atoms: O_5  and  C_13 
REMARK    5  A    between atoms: O_6  and  C_14 
REMARK    6  A    between atoms: C_11  and  C_15 
ROOT
HETATM    1  O   UNL     1      41.723  45.868  35.539  1.00  0.00    -0.328 OA
HETATM    2  C   UNL     1      40.355  46.177  33.485  1.00  0.00     0.168 C 
HETATM    3  C   UNL     1      40.533  45.423  34.833  1.00  0.00     0.166 C 
HETATM    4  C   UNL     1      40.590  47.697  33.643  1.00  0.00     0.172 C 
HETATM    5  C   UNL     1      41.827  48.015  34.481  1.00  0.00     0.197 C 
HETATM    6  C   UNL     1      41.763  47.262  35.810  1.00  0.00     0.263 C 
ENDROOT
BRANCH   3   7
HETATM    7  C   UNL     1      40.751  43.918  34.672  1.00  0.00     0.178 C 
BRANCH   7   8
HETATM    8  S   UNL     1      39.353  42.921  35.074  1.00  0.00     0.118 S 
HETATM    9  O   UNL     1      38.416  43.227  33.995  1.00  0.00    -0.594 OA
HETATM   10  O   UNL     1      38.961  43.400  36.394  1.00  0.00    -0.594 OA
HETATM   11  O   UNL     1      39.900  41.568  35.041  1.00  0.00    -0.594 OA
ENDBRANCH   7   8
ENDBRANCH   3   7
BRANCH   2  12
HETATM   12  O   UNL     1      39.042  46.026  32.942  1.00  0.00    -0.380 OA
HETATM   13  H   UNL     1      38.483  46.783  33.248  1.00  0.00     0.211 HD
ENDBRANCH   2  12
BRANCH   6  14
HETATM   14  O   UNL     1      40.671  47.657  36.607  1.00  0.00    -0.359 OA
HETATM   15  H   UNL     1      39.939  47.072  36.343  1.00  0.00     0.213 HD
ENDBRANCH   6  14
BRANCH   4  16
HETATM   16  O   UNL     1      40.759  48.322  32.352  1.00  0.00    -0.380 OA
HETATM   17  H   UNL     1      40.765  47.591  31.707  1.00  0.00     0.211 HD
ENDBRANCH   4  16
BRANCH   5  18
HETATM   18  O   UNL     1      43.009  47.629  33.741  1.00  0.00    -0.378 OA
HETATM   19  H   UNL     1      43.707  47.464  34.406  1.00  0.00     0.211 HD
ENDBRANCH   5  18
TORSDOF 6
ENDMDL
MODEL 2
REMARK VINA RESULT:    -5.359      1.695      2.553
REMARK INTER + INTRA:          -6.793
REMARK INTER:                  -6.612
REMARK INTRA:                  -0.181
REMARK UNBOUND:                -0.181
REMARK  6 active torsions:
REMARK  status: ('A' for Active; 'I' for Inactive)
REMARK    1  A    between atoms: S_1  and  C_15 
REMARK    2  A    between atoms: O_3  and  C_10 
REMARK    3  A    between atoms: O_4  and  C_12 
REMARK    4  A    between atoms: O_5  and  C_13 
REMARK    5  A    between atoms: O_6  and  C_14 
REMARK    6  A    between atoms: C_11  and  C_15 
ROOT
HETATM    1  O   UNL     1      39.287  46.023  34.378  1.00  0.00    -0.328 OA
HETATM    2  C   UNL     1      41.422  45.558  33.189  1.00  0.00     0.168 C 
HETATM    3  C   UNL     1      40.151  44.972  33.866  1.00  0.00     0.166 C 
HETATM    4  C   UNL     1      41.079  46.745  32.259  1.00  0.00     0.172 C 
HETATM    5  C   UNL     1      40.093  47.723  32.895  1.00  0.00     0.197 C 
HETATM    6  C   UNL     1      38.866  46.968  33.404  1.00  0.00     0.263 C 
ENDROOT
BRANCH   3   7
HETATM    7  C   UNL     1      40.450  44.119  35.100  1.00  0.00     0.178 C 
BRANCH   7   8
HETATM    8  S   UNL     1      39.448  42.678  35.264  1.00  0.00     0.118 S 
HETATM    9  O   UNL     1      40.387  41.596  34.977  1.00  0.00    -0.594 OA
HETATM   10  O   UNL     1      38.402  42.875  34.267  1.00  0.00    -0.594 OA
HETATM   11  O   UNL     1      39.005  42.747  36.653  1.00  0.00    -0.594 OA
ENDBRANCH   7   8
ENDBRANCH   3   7
BRANCH   2  12
HETATM   12  O   UNL     1      42.105  44.597  32.382  1.00  0.00    -0.380 OA
HETATM   13  H   UNL     1      41.580  44.446  31.556  1.00  0.00     0.211 HD
ENDBRANCH   2  12
BRANCH   6  14
HETATM   14  O   UNL     1      38.143  46.344  32.368  1.00  0.00    -0.359 OA
HETATM   15  H   UNL     1      37.683  45.599  32.794  1.00  0.00     0.213 HD
ENDBRANCH   6  14
BRANCH   4  16
HETATM   16  O   UNL     1      42.273  47.482  31.914  1.00  0.00    -0.380 OA
HETATM   17  H   UNL     1      42.643  47.028  31.134  1.00  0.00     0.211 HD
ENDBRANCH   4  16
BRANCH   5  18
HETATM   18  O   UNL     1      40.750  48.409  33.987  1.00  0.00    -0.378 OA
HETATM   19  H   UNL     1      41.248  47.727  34.479  1.00  0.00     0.211 HD
ENDBRANCH   5  18
TORSDOF 6
ENDMDL
MODEL 3
REMARK VINA RESULT:    -5.175      2.086      2.905
REMARK INTER + INTRA:          -6.566
REMARK INTER:                  -6.108
REMARK INTRA:                  -0.458
REMARK UNBOUND:                -0.181
REMARK  6 active torsions:
REMARK  status: ('A' for Active; 'I' for Inactive)
REMARK    1  A    between atoms: S_1  and  C_15 
REMARK    2  A    between atoms: O_3  and  C_10 
REMARK    3  A    between atoms: O_4  and  C_12 
REMARK    4  A    between atoms: O_5  and  C_13 
REMARK    5  A    between atoms: O_6  and  C_14 
REMARK    6  A    between atoms: C_11  and  C_15 
ROOT
HETATM    1  O   UNL     1      41.191  45.208  37.121  1.00  0.00    -0.328 OA
HETATM    2  C   UNL     1      40.113  43.829  35.354  1.00  0.00     0.168 C 
HETATM    3  C   UNL     1      40.278  44.105  36.875  1.00  0.00     0.166 C 
HETATM    4  C   UNL     1      39.918  45.137  34.553  1.00  0.00     0.172 C 
HETATM    5  C   UNL     1      40.889  46.236  34.979  1.00  0.00     0.197 C 
HETATM    6  C   UNL     1      40.826  46.429  36.493  1.00  0.00     0.263 C 
ENDROOT
BRANCH   3   7
HETATM    7  C   UNL     1      40.902  42.941  37.646  1.00  0.00     0.178 C 
BRANCH   7   8
HETATM    8  S   UNL     1      39.772  41.669  38.107  1.00  0.00     0.118 S 
HETATM    9  O   UNL     1      39.842  40.748  36.974  1.00  0.00    -0.594 OA
HETATM   10  O   UNL     1      38.505  42.375  38.258  1.00  0.00    -0.594 OA
HETATM   11  O   UNL     1      40.349  41.155  39.346  1.00  0.00    -0.594 OA
ENDBRANCH   7   8
ENDBRANCH   3   7
BRANCH   2  12
HETATM   12  O   UNL     1      38.981  43.006  35.066  1.00  0.00    -0.380 OA
HETATM   13  H   UNL     1      38.353  43.519  34.497  1.00  0.00     0.211 HD
ENDBRANCH   2  12
BRANCH   6  14
HETATM   14  O   UNL     1      39.562  46.870  36.933  1.00  0.00    -0.359 OA
HETATM   15  H   UNL     1      39.735  47.703  37.405  1.00  0.00     0.213 HD
ENDBRANCH   6  14
BRANCH   4  16
HETATM   16  O   UNL     1      40.108  44.902  33.141  1.00  0.00    -0.380 OA
HETATM   17  H   UNL     1      40.803  44.220  33.082  1.00  0.00     0.211 HD
ENDBRANCH   4  16
BRANCH   5  18
HETATM   18  O   UNL     1      42.228  45.863  34.575  1.00  0.00    -0.378 OA
HETATM   19  H   UNL     1      42.677  46.693  34.317  1.00  0.00     0.211 HD
ENDBRANCH   5  18
TORSDOF 6
ENDMDL
MODEL 4
REMARK VINA RESULT:    -4.605      1.755      2.436
REMARK INTER + INTRA:          -5.862
REMARK INTER:                  -5.708
REMARK INTRA:                  -0.154
REMARK UNBOUND:                -0.181
REMARK  6 active torsions:
REMARK  status: ('A' for Active; 'I' for Inactive)
REMARK    1  A    between atoms: S_1  and  C_15 
REMARK    2  A    between atoms: O_3  and  C_10 
REMARK    3  A    between atoms: O_4  and  C_12 
REMARK    4  A    between atoms: O_5  and  C_13 
REMARK    5  A    between atoms: O_6  and  C_14 
REMARK    6  A    between atoms: C_11  and  C_15 
ROOT
HETATM    1  O   UNL     1      42.033  44.611  33.347  1.00  0.00    -0.328 OA
HETATM    2  C   UNL     1      40.431  46.455  33.813  1.00  0.00     0.168 C 
HETATM    3  C   UNL     1      41.035  45.102  34.282  1.00  0.00     0.166 C 
HETATM    4  C   UNL     1      41.525  47.433  33.325  1.00  0.00     0.172 C 
HETATM    5  C   UNL     1      42.554  46.757  32.421  1.00  0.00     0.197 C 
HETATM    6  C   UNL     1      43.107  45.507  33.104  1.00  0.00     0.263 C 
ENDROOT
BRANCH   3   7
HETATM    7  C   UNL     1      40.015  43.965  34.352  1.00  0.00     0.178 C 
BRANCH   7   8
HETATM    8  S   UNL     1      40.205  42.885  35.733  1.00  0.00     0.118 S 
HETATM    9  O   UNL     1      41.600  43.089  36.115  1.00  0.00    -0.594 OA
HETATM   10  O   UNL     1      39.896  41.570  35.183  1.00  0.00    -0.594 OA
HETATM   11  O   UNL     1      39.229  43.404  36.687  1.00  0.00    -0.594 OA
ENDBRANCH   7   8
ENDBRANCH   3   7
BRANCH   2  12
HETATM   12  O   UNL     1      39.721  47.130  34.854  1.00  0.00    -0.380 OA
HETATM   13  H   UNL     1      40.360  47.696  35.357  1.00  0.00     0.211 HD
ENDBRANCH   2  12
BRANCH   6  14
HETATM   14  O   UNL     1      43.805  45.801  34.293  1.00  0.00    -0.359 OA
HETATM   15  H   UNL     1      44.685  46.098  34.003  1.00  0.00     0.213 HD
ENDBRANCH   6  14
BRANCH   4  16
HETATM   16  O   UNL     1      40.938  48.527  32.587  1.00  0.00    -0.380 OA
HETATM   17  H   UNL     1      40.183  48.140  32.106  1.00  0.00     0.211 HD
ENDBRANCH   4  16
BRANCH   5  18
HETATM   18  O   UNL     1      41.920  46.407  31.168  1.00  0.00    -0.378 OA
HETATM   19  H   UNL     1      41.110  45.910  31.400  1.00  0.00     0.211 HD
ENDBRANCH   5  18
TORSDOF 6
ENDMDL
MODEL 5
REMARK VINA RESULT:    -4.500      2.289      4.919
REMARK INTER + INTRA:          -5.733
REMARK INTER:                  -5.438
REMARK INTRA:                  -0.295
REMARK UNBOUND:                -0.181
REMARK  6 active torsions:
REMARK  status: ('A' for Active; 'I' for Inactive)
REMARK    1  A    between atoms: S_1  and  C_15 
REMARK    2  A    between atoms: O_3  and  C_10 
REMARK    3  A    between atoms: O_4  and  C_12 
REMARK    4  A    between atoms: O_5  and  C_13 
REMARK    5  A    between atoms: O_6  and  C_14 
REMARK    6  A    between atoms: C_11  and  C_15 
ROOT
HETATM    1  O   UNL     1      40.735  44.883  37.329  1.00  0.00    -0.328 OA
HETATM    2  C   UNL     1      39.903  43.938  35.185  1.00  0.00     0.168 C 
HETATM    3  C   UNL     1      40.673  45.088  35.892  1.00  0.00     0.166 C 
HETATM    4  C   UNL     1      40.336  42.550  35.711  1.00  0.00     0.172 C 
HETATM    5  C   UNL     1      40.443  42.508  37.234  1.00  0.00     0.197 C 
HETATM    6  C   UNL     1      41.326  43.654  37.727  1.00  0.00     0.263 C 
ENDROOT
BRANCH   3   7
HETATM    7  C   UNL     1      40.002  46.455  35.751  1.00  0.00     0.178 C 
BRANCH   7   8
HETATM    8  S   UNL     1      40.365  47.305  34.250  1.00  0.00     0.118 S 
HETATM    9  O   UNL     1      39.059  47.386  33.599  1.00  0.00    -0.594 OA
HETATM   10  O   UNL     1      41.336  46.439  33.592  1.00  0.00    -0.594 OA
HETATM   11  O   UNL     1      40.892  48.583  34.721  1.00  0.00    -0.594 OA
ENDBRANCH   7   8
ENDBRANCH   3   7
BRANCH   2  12
HETATM   12  O   UNL     1      40.120  43.919  33.772  1.00  0.00    -0.380 OA
HETATM   13  H   UNL     1      40.239  42.980  33.482  1.00  0.00     0.211 HD
ENDBRANCH   2  12
BRANCH   6  14
HETATM   14  O   UNL     1      42.653  43.554  37.266  1.00  0.00    -0.359 OA
HETATM   15  H   UNL     1      42.630  42.871  36.573  1.00  0.00     0.213 HD
ENDBRANCH   6  14
BRANCH   4  16
HETATM   16  O   UNL     1      39.392  41.534  35.306  1.00  0.00    -0.380 OA
HETATM   17  H   UNL     1      38.888  41.927  34.568  1.00  0.00     0.211 HD
ENDBRANCH   4  16
BRANCH   5  18
HETATM   18  O   UNL     1      39.116  42.615  37.802  1.00  0.00    -0.378 OA
HETATM   19  H   UNL     1      39.225  43.047  38.673  1.00  0.00     0.211 HD
ENDBRANCH   5  18
TORSDOF 6
ENDMDL
MODEL 6
REMARK VINA RESULT:    -4.485      2.323      3.348
REMARK INTER + INTRA:          -5.714
REMARK INTER:                  -5.278
REMARK INTRA:                  -0.437
REMARK UNBOUND:                -0.181
REMARK  6 active torsions:
REMARK  status: ('A' for Active; 'I' for Inactive)
REMARK    1  A    between atoms: S_1  and  C_15 
REMARK    2  A    between atoms: O_3  and  C_10 
REMARK    3  A    between atoms: O_4  and  C_12 
REMARK    4  A    between atoms: O_5  and  C_13 
REMARK    5  A    between atoms: O_6  and  C_14 
REMARK    6  A    between atoms: C_11  and  C_15 
ROOT
HETATM    1  O   UNL     1      43.442  45.829  33.234  1.00  0.00    -0.328 OA
HETATM    2  C   UNL     1      42.100  47.922  33.269  1.00  0.00     0.168 C 
HETATM    3  C   UNL     1      42.423  46.568  33.960  1.00  0.00     0.166 C 
HETATM    4  C   UNL     1      43.386  48.669  32.843  1.00  0.00     0.172 C 
HETATM    5  C   UNL     1      44.403  47.748  32.172  1.00  0.00     0.197 C 
HETATM    6  C   UNL     1      44.665  46.529  33.055  1.00  0.00     0.263 C 
ENDROOT
BRANCH   3   7
HETATM    7  C   UNL     1      41.238  45.602  34.002  1.00  0.00     0.178 C 
BRANCH   7   8
HETATM    8  S   UNL     1      40.293  45.655  35.489  1.00  0.00     0.118 S 
HETATM    9  O   UNL     1      39.591  44.374  35.473  1.00  0.00    -0.594 OA
HETATM   10  O   UNL     1      39.448  46.831  35.314  1.00  0.00    -0.594 OA
HETATM   11  O   UNL     1      41.318  45.775  36.521  1.00  0.00    -0.594 OA
ENDBRANCH   7   8
ENDBRANCH   3   7
BRANCH   2  12
HETATM   12  O   UNL     1      41.378  48.814  34.121  1.00  0.00    -0.380 OA
HETATM   13  H   UNL     1      41.914  48.975  34.938  1.00  0.00     0.211 HD
ENDBRANCH   2  12
BRANCH   6  14
HETATM   14  O   UNL     1      45.244  46.869  34.294  1.00  0.00    -0.359 OA
HETATM   15  H   UNL     1      46.025  46.295  34.375  1.00  0.00     0.213 HD
ENDBRANCH   6  14
BRANCH   4  16
HETATM   16  O   UNL     1      43.074  49.732  31.917  1.00  0.00    -0.380 OA
HETATM   17  H   UNL     1      42.100  49.782  31.896  1.00  0.00     0.211 HD
ENDBRANCH   4  16
BRANCH   5  18
HETATM   18  O   UNL     1      43.886  47.335  30.885  1.00  0.00    -0.378 OA
HETATM   19  H   UNL     1      42.930  47.538  30.896  1.00  0.00     0.211 HD
ENDBRANCH   5  18
TORSDOF 6
ENDMDL
MODEL 7
REMARK VINA RESULT:    -4.461      1.844      2.431
REMARK INTER + INTRA:          -5.685
REMARK INTER:                  -5.288
REMARK INTRA:                  -0.397
REMARK UNBOUND:                -0.181
REMARK  6 active torsions:
REMARK  status: ('A' for Active; 'I' for Inactive)
REMARK    1  A    between atoms: S_1  and  C_15 
REMARK    2  A    between atoms: O_3  and  C_10 
REMARK    3  A    between atoms: O_4  and  C_12 
REMARK    4  A    between atoms: O_5  and  C_13 
REMARK    5  A    between atoms: O_6  and  C_14 
REMARK    6  A    between atoms: C_11  and  C_15 
ROOT
HETATM    1  O   UNL     1      40.754  45.539  36.575  1.00  0.00    -0.328 OA
HETATM    2  C   UNL     1      41.993  44.449  34.715  1.00  0.00     0.168 C 
HETATM    3  C   UNL     1      40.856  44.335  35.768  1.00  0.00     0.166 C 
HETATM    4  C   UNL     1      41.971  45.817  33.994  1.00  0.00     0.172 C 
HETATM    5  C   UNL     1      41.770  46.984  34.958  1.00  0.00     0.197 C 
HETATM    6  C   UNL     1      40.542  46.731  35.833  1.00  0.00     0.263 C 
ENDROOT
BRANCH   3   7
HETATM    7  C   UNL     1      41.082  43.228  36.798  1.00  0.00     0.178 C 
BRANCH   7   8
HETATM    8  S   UNL     1      39.977  41.859  36.668  1.00  0.00     0.118 S 
HETATM    9  O   UNL     1      38.759  42.366  37.297  1.00  0.00    -0.594 OA
HETATM   10  O   UNL     1      40.660  40.798  37.399  1.00  0.00    -0.594 OA
HETATM   11  O   UNL     1      39.880  41.657  35.226  1.00  0.00    -0.594 OA
ENDBRANCH   7   8
ENDBRANCH   3   7
BRANCH   2  12
HETATM   12  O   UNL     1      41.898  43.453  33.694  1.00  0.00    -0.380 OA
HETATM   13  H   UNL     1      42.789  43.341  33.277  1.00  0.00     0.211 HD
ENDBRANCH   2  12
BRANCH   6  14
HETATM   14  O   UNL     1      39.348  46.664  35.089  1.00  0.00    -0.359 OA
HETATM   15  H   UNL     1      39.132  47.588  34.873  1.00  0.00     0.213 HD
ENDBRANCH   6  14
BRANCH   4  16
HETATM   16  O   UNL     1      43.209  46.038  33.284  1.00  0.00    -0.380 OA
HETATM   17  H   UNL     1      42.958  46.488  32.456  1.00  0.00     0.211 HD
ENDBRANCH   4  16
BRANCH   5  18
HETATM   18  O   UNL     1      42.953  47.126  35.780  1.00  0.00    -0.378 OA
HETATM   19  H   UNL     1      43.696  46.768  35.254  1.00  0.00     0.211 HD
ENDBRANCH   5  18
TORSDOF 6
ENDMDL
MODEL 8
REMARK VINA RESULT:    -4.458      3.065      4.252
REMARK INTER + INTRA:          -5.682
REMARK INTER:                  -5.195
REMARK INTRA:                  -0.487
REMARK UNBOUND:                -0.181
REMARK  6 active torsions:
REMARK  status: ('A' for Active; 'I' for Inactive)
REMARK    1  A    between atoms: S_1  and  C_15 
REMARK    2  A    between atoms: O_3  and  C_10 
REMARK    3  A    between atoms: O_4  and  C_12 
REMARK    4  A    between atoms: O_5  and  C_13 
REMARK    5  A    between atoms: O_6  and  C_14 
REMARK    6  A    between atoms: C_11  and  C_15 
ROOT
HETATM    1  O   UNL     1      41.347  45.077  34.191  1.00  0.00    -0.328 OA
HETATM    2  C   UNL     1      41.667  46.493  32.172  1.00  0.00     0.168 C 
HETATM    3  C   UNL     1      41.928  45.124  32.861  1.00  0.00     0.166 C 
HETATM    4  C   UNL     1      40.201  46.953  32.350  1.00  0.00     0.172 C 
HETATM    5  C   UNL     1      39.696  46.763  33.779  1.00  0.00     0.197 C 
HETATM    6  C   UNL     1      39.949  45.327  34.234  1.00  0.00     0.263 C 
ENDROOT
BRANCH   3   7
HETATM    7  C   UNL     1      43.410  44.832  33.104  1.00  0.00     0.178 C 
BRANCH   7   8
HETATM    8  S   UNL     1      44.285  44.229  31.698  1.00  0.00     0.118 S 
HETATM    9  O   UNL     1      45.224  43.275  32.285  1.00  0.00    -0.594 OA
HETATM   10  O   UNL     1      44.890  45.429  31.131  1.00  0.00    -0.594 OA
HETATM   11  O   UNL     1      43.228  43.626  30.891  1.00  0.00    -0.594 OA
ENDBRANCH   7   8
ENDBRANCH   3   7
BRANCH   2  12
HETATM   12  O   UNL     1      41.910  46.455  30.764  1.00  0.00    -0.380 OA
HETATM   13  H   UNL     1      42.862  46.674  30.601  1.00  0.00     0.211 HD
ENDBRANCH   2  12
BRANCH   6  14
HETATM   14  O   UNL     1      39.239  44.381  33.469  1.00  0.00    -0.359 OA
HETATM   15  H   UNL     1      38.314  44.461  33.762  1.00  0.00     0.213 HD
ENDBRANCH   6  14
BRANCH   4  16
HETATM   16  O   UNL     1      40.062  48.351  32.013  1.00  0.00    -0.380 OA
HETATM   17  H   UNL     1      39.401  48.704  32.638  1.00  0.00     0.211 HD
ENDBRANCH   4  16
BRANCH   5  18
HETATM   18  O   UNL     1      40.383  47.694  34.648  1.00  0.00    -0.378 OA
HETATM   19  H   UNL     1      39.843  47.761  35.460  1.00  0.00     0.211 HD
ENDBRANCH   5  18
TORSDOF 6
ENDMDL
MODEL 9
REMARK VINA RESULT:    -4.436      3.053      5.502
REMARK INTER + INTRA:          -5.654
REMARK INTER:                  -5.159
REMARK INTRA:                  -0.495
REMARK UNBOUND:                -0.181
REMARK  6 active torsions:
REMARK  status: ('A' for Active; 'I' for Inactive)
REMARK    1  A    between atoms: S_1  and  C_15 
REMARK    2  A    between atoms: O_3  and  C_10 
REMARK    3  A    between atoms: O_4  and  C_12 
REMARK    4  A    between atoms: O_5  and  C_13 
REMARK    5  A    between atoms: O_6  and  C_14 
REMARK    6  A    between atoms: C_11  and  C_15 
ROOT
HETATM    1  O   UNL     1      42.890  45.811  34.118  1.00  0.00    -0.328 OA
HETATM    2  C   UNL     1      41.611  47.785  33.313  1.00  0.00     0.168 C 
HETATM    3  C   UNL     1      42.929  46.965  33.236  1.00  0.00     0.166 C 
HETATM    4  C   UNL     1      40.364  46.871  33.272  1.00  0.00     0.172 C 
HETATM    5  C   UNL     1      40.501  45.652  34.182  1.00  0.00     0.197 C 
HETATM    6  C   UNL     1      41.809  44.921  33.879  1.00  0.00     0.263 C 
ENDROOT
BRANCH   3   7
HETATM    7  C   UNL     1      44.162  47.738  33.707  1.00  0.00     0.178 C 
BRANCH   7   8
HETATM    8  S   UNL     1      44.867  48.812  32.500  1.00  0.00     0.118 S 
HETATM    9  O   UNL     1      44.413  48.226  31.241  1.00  0.00    -0.594 OA
HETATM   10  O   UNL     1      46.300  48.714  32.752  1.00  0.00    -0.594 OA
HETATM   11  O   UNL     1      44.266  50.103  32.824  1.00  0.00    -0.594 OA
ENDBRANCH   7   8
ENDBRANCH   3   7
BRANCH   2  12
HETATM   12  O   UNL     1      41.473  48.705  32.227  1.00  0.00    -0.380 OA
HETATM   13  H   UNL     1      42.374  48.916  31.875  1.00  0.00     0.211 HD
ENDBRANCH   2  12
BRANCH   6  14
HETATM   14  O   UNL     1      41.853  44.405  32.569  1.00  0.00    -0.359 OA
HETATM   15  H   UNL     1      40.968  44.029  32.415  1.00  0.00     0.213 HD
ENDBRANCH   6  14
BRANCH   4  16
HETATM   16  O   UNL     1      39.186  47.599  33.683  1.00  0.00    -0.380 OA
HETATM   17  H   UNL     1      38.678  47.756  32.865  1.00  0.00     0.211 HD
ENDBRANCH   4  16
BRANCH   5  18
HETATM   18  O   UNL     1      40.477  46.089  35.561  1.00  0.00    -0.378 OA
HETATM   19  H   UNL     1      40.722  47.036  35.553  1.00  0.00     0.211 HD
ENDBRANCH   5  18
TORSDOF 6
ENDMDL
MODEL 10
REMARK VINA RESULT:    -4.269      1.720      3.099
REMARK INTER + INTRA:          -5.448
REMARK INTER:                  -5.051
REMARK INTRA:                  -0.397
REMARK UNBOUND:                -0.181
REMARK  6 active torsions:
REMARK  status: ('A' for Active; 'I' for Inactive)
REMARK    1  A    between atoms: S_1  and  C_15 
REMARK    2  A    between atoms: O_3  and  C_10 
REMARK    3  A    between atoms: O_4  and  C_12 
REMARK    4  A    between atoms: O_5  and  C_13 
REMARK    5  A    between atoms: O_6  and  C_14 
REMARK    6  A    between atoms: C_11  and  C_15 
ROOT
HETATM    1  O   UNL     1      41.225  45.842  33.314  1.00  0.00    -0.328 OA
HETATM    2  C   UNL     1      41.563  47.473  35.161  1.00  0.00     0.168 C 
HETATM    3  C   UNL     1      41.386  45.984  34.751  1.00  0.00     0.166 C 
HETATM    4  C   UNL     1      42.558  48.209  34.234  1.00  0.00     0.172 C 
HETATM    5  C   UNL     1      42.324  47.896  32.757  1.00  0.00     0.197 C 
HETATM    6  C   UNL     1      42.289  46.383  32.544  1.00  0.00     0.263 C 
ENDROOT
BRANCH   3   7
HETATM    7  C   UNL     1      40.124  45.336  35.321  1.00  0.00     0.178 C 
BRANCH   7   8
HETATM    8  S   UNL     1      40.412  44.160  36.604  1.00  0.00     0.118 S 
HETATM    9  O   UNL     1      41.579  44.708  37.290  1.00  0.00    -0.594 OA
HETATM   10  O   UNL     1      40.642  42.915  35.880  1.00  0.00    -0.594 OA
HETATM   11  O   UNL     1      39.172  44.211  37.374  1.00  0.00    -0.594 OA
ENDBRANCH   7   8
ENDBRANCH   3   7
BRANCH   2  12
HETATM   12  O   UNL     1      42.065  47.621  36.491  1.00  0.00    -0.380 OA
HETATM   13  H   UNL     1      42.875  47.060  36.587  1.00  0.00     0.211 HD
ENDBRANCH   2  12
BRANCH   6  14
HETATM   14  O   UNL     1      43.513  45.761  32.858  1.00  0.00    -0.359 OA
HETATM   15  H   UNL     1      44.011  45.745  32.022  1.00  0.00     0.213 HD
ENDBRANCH   6  14
BRANCH   4  16
HETATM   16  O   UNL     1      42.452  49.639  34.406  1.00  0.00    -0.380 OA
HETATM   17  H   UNL     1      41.516  49.853  34.238  1.00  0.00     0.211 HD
ENDBRANCH   4  16
BRANCH   5  18
HETATM   18  O   UNL     1      41.072  48.492  32.343  1.00  0.00    -0.378 OA
HETATM   19  H   UNL     1      40.377  48.079  32.893  1.00  0.00     0.211 HD
ENDBRANCH   5  18
TORSDOF 6
ENDMDL
