MODEL 1
REMARK VINA RESULT:    -5.484      0.000      0.000
REMARK INTER + INTRA:          -6.956
REMARK INTER:                  -6.549
REMARK INTRA:                  -0.407
REMARK UNBOUND:                -0.189
REMARK  6 active torsions:
REMARK  status: ('A' for Active; 'I' for Inactive)
REMARK    1  A    between atoms: S_1  and  C_15 
REMARK    2  A    between atoms: O_3  and  C_10 
REMARK    3  A    between atoms: O_4  and  C_12 
REMARK    4  A    between atoms: O_5  and  C_13 
REMARK    5  A    between atoms: O_6  and  C_14 
REMARK    6  A    between atoms: C_11  and  C_15 
ROOT
HETATM    1  O   UNL     1      41.689  45.803  35.583  1.00  0.00    -0.328 OA
HETATM    2  C   UNL     1      40.307  46.116  33.539  1.00  0.00     0.168 C 
HETATM    3  C   UNL     1      40.497  45.356  34.882  1.00  0.00     0.166 C 
HETATM    4  C   UNL     1      40.536  47.636  33.704  1.00  0.00     0.172 C 
HETATM    5  C   UNL     1      41.775  47.956  34.538  1.00  0.00     0.197 C 
HETATM    6  C   UNL     1      41.723  47.195  35.862  1.00  0.00     0.263 C 
ENDROOT
BRANCH   3   7
HETATM    7  C   UNL     1      40.722  43.853  34.710  1.00  0.00     0.178 C 
BRANCH   7   8
HETATM    8  S   UNL     1      39.340  42.845  35.139  1.00  0.00     0.118 S 
HETATM    9  O   UNL     1      39.921  41.505  35.193  1.00  0.00    -0.594 OA
HETATM   10  O   UNL     1      38.400  43.073  34.049  1.00  0.00    -0.594 OA
HETATM   11  O   UNL     1      38.934  43.385  36.433  1.00  0.00    -0.594 OA
ENDBRANCH   7   8
ENDBRANCH   3   7
BRANCH   2  12
HETATM   12  O   UNL     1      38.992  45.961  33.002  1.00  0.00    -0.380 OA
HETATM   13  H   UNL     1      38.399  46.637  33.418  1.00  0.00     0.211 HD
ENDBRANCH   2  12
BRANCH   6  14
HETATM   14  O   UNL     1      40.633  47.581  36.668  1.00  0.00    -0.359 OA
HETATM   15  H   UNL     1      40.170  48.267  36.156  1.00  0.00     0.213 HD
ENDBRANCH   6  14
BRANCH   4  16
HETATM   16  O   UNL     1      40.694  48.270  32.416  1.00  0.00    -0.380 OA
HETATM   17  H   UNL     1      41.173  49.101  32.592  1.00  0.00     0.211 HD
ENDBRANCH   4  16
BRANCH   5  18
HETATM   18  O   UNL     1      42.955  47.581  33.789  1.00  0.00    -0.378 OA
HETATM   19  H   UNL     1      42.853  47.977  32.900  1.00  0.00     0.211 HD
ENDBRANCH   5  18
TORSDOF 6
ENDMDL
MODEL 2
REMARK VINA RESULT:    -5.385      1.650      2.550
REMARK INTER + INTRA:          -6.834
REMARK INTER:                  -6.645
REMARK INTRA:                  -0.189
REMARK UNBOUND:                -0.189
REMARK  6 active torsions:
REMARK  status: ('A' for Active; 'I' for Inactive)
REMARK    1  A    between atoms: S_1  and  C_15 
REMARK    2  A    between atoms: O_3  and  C_10 
REMARK    3  A    between atoms: O_4  and  C_12 
REMARK    4  A    between atoms: O_5  and  C_13 
REMARK    5  A    between atoms: O_6  and  C_14 
REMARK    6  A    between atoms: C_11  and  C_15 
ROOT
HETATM    1  O   UNL     1      39.302  45.976  34.410  1.00  0.00    -0.328 OA
HETATM    2  C   UNL     1      41.465  45.455  33.299  1.00  0.00     0.168 C 
HETATM    3  C   UNL     1      40.153  44.904  33.924  1.00  0.00     0.166 C 
HETATM    4  C   UNL     1      41.193  46.657  32.364  1.00  0.00     0.172 C 
HETATM    5  C   UNL     1      40.212  47.660  32.970  1.00  0.00     0.197 C 
HETATM    6  C   UNL     1      38.945  46.938  33.427  1.00  0.00     0.263 C 
ENDROOT
BRANCH   3   7
HETATM    7  C   UNL     1      40.381  44.035  35.163  1.00  0.00     0.178 C 
BRANCH   7   8
HETATM    8  S   UNL     1      39.329  42.625  35.281  1.00  0.00     0.118 S 
HETATM    9  O   UNL     1      38.734  42.776  36.608  1.00  0.00    -0.594 OA
HETATM   10  O   UNL     1      40.246  41.501  35.133  1.00  0.00    -0.594 OA
HETATM   11  O   UNL     1      38.400  42.820  34.172  1.00  0.00    -0.594 OA
ENDBRANCH   7   8
ENDBRANCH   3   7
BRANCH   2  12
HETATM   12  O   UNL     1      42.150  44.479  32.512  1.00  0.00    -0.380 OA
HETATM   13  H   UNL     1      42.199  43.634  33.026  1.00  0.00     0.211 HD
ENDBRANCH   2  12
BRANCH   6  14
HETATM   14  O   UNL     1      38.244  46.341  32.361  1.00  0.00    -0.359 OA
HETATM   15  H   UNL     1      37.371  46.116  32.727  1.00  0.00     0.213 HD
ENDBRANCH   6  14
BRANCH   4  16
HETATM   16  O   UNL     1      42.419  47.360  32.070  1.00  0.00    -0.380 OA
HETATM   17  H   UNL     1      43.095  46.667  31.952  1.00  0.00     0.211 HD
ENDBRANCH   4  16
BRANCH   5  18
HETATM   18  O   UNL     1      40.847  48.321  34.090  1.00  0.00    -0.378 OA
HETATM   19  H   UNL     1      41.157  47.611  34.687  1.00  0.00     0.211 HD
ENDBRANCH   5  18
TORSDOF 6
ENDMDL
MODEL 3
REMARK VINA RESULT:    -5.265      1.547      2.258
REMARK INTER + INTRA:          -6.685
REMARK INTER:                  -6.323
REMARK INTRA:                  -0.362
REMARK UNBOUND:                -0.189
REMARK  6 active torsions:
REMARK  status: ('A' for Active; 'I' for Inactive)
REMARK    1  A    between atoms: S_1  and  C_15 
REMARK    2  A    between atoms: O_3  and  C_10 
REMARK    3  A    between atoms: O_4  and  C_12 
REMARK    4  A    between atoms: O_5  and  C_13 
REMARK    5  A    between atoms: O_6  and  C_14 
REMARK    6  A    between atoms: C_11  and  C_15 
ROOT
HETATM    1  O   UNL     1      41.642  44.614  33.366  1.00  0.00    -0.328 OA
HETATM    2  C   UNL     1      40.069  46.009  34.695  1.00  0.00     0.168 C 
HETATM    3  C   UNL     1      40.868  44.679  34.594  1.00  0.00     0.166 C 
HETATM    4  C   UNL     1      40.936  47.229  34.308  1.00  0.00     0.172 C 
HETATM    5  C   UNL     1      41.761  46.985  33.046  1.00  0.00     0.197 C 
HETATM    6  C   UNL     1      42.555  45.687  33.185  1.00  0.00     0.263 C 
ENDROOT
BRANCH   3   7
HETATM    7  C   UNL     1      39.983  43.434  34.529  1.00  0.00     0.178 C 
BRANCH   7   8
HETATM    8  S   UNL     1      39.801  42.575  36.058  1.00  0.00     0.118 S 
HETATM    9  O   UNL     1      41.036  42.906  36.765  1.00  0.00    -0.594 OA
HETATM   10  O   UNL     1      39.669  41.180  35.653  1.00  0.00    -0.594 OA
HETATM   11  O   UNL     1      38.596  43.174  36.625  1.00  0.00    -0.594 OA
ENDBRANCH   7   8
ENDBRANCH   3   7
BRANCH   2  12
HETATM   12  O   UNL     1      39.586  46.259  36.017  1.00  0.00    -0.380 OA
HETATM   13  H   UNL     1      40.076  47.034  36.392  1.00  0.00     0.211 HD
ENDBRANCH   2  12
BRANCH   6  14
HETATM   14  O   UNL     1      43.497  45.735  34.232  1.00  0.00    -0.359 OA
HETATM   15  H   UNL     1      44.270  46.193  33.857  1.00  0.00     0.213 HD
ENDBRANCH   6  14
BRANCH   4  16
HETATM   16  O   UNL     1      40.108  48.389  34.077  1.00  0.00    -0.380 OA
HETATM   17  H   UNL     1      40.709  49.155  34.137  1.00  0.00     0.211 HD
ENDBRANCH   4  16
BRANCH   5  18
HETATM   18  O   UNL     1      40.869  46.909  31.909  1.00  0.00    -0.378 OA
HETATM   19  H   UNL     1      39.972  47.095  32.251  1.00  0.00     0.211 HD
ENDBRANCH   5  18
TORSDOF 6
ENDMDL
MODEL 4
REMARK VINA RESULT:    -4.450      2.309      4.938
REMARK INTER + INTRA:          -5.680
REMARK INTER:                  -5.359
REMARK INTRA:                  -0.321
REMARK UNBOUND:                -0.189
REMARK  6 active torsions:
REMARK  status: ('A' for Active; 'I' for Inactive)
REMARK    1  A    between atoms: S_1  and  C_15 
REMARK    2  A    between atoms: O_3  and  C_10 
REMARK    3  A    between atoms: O_4  and  C_12 
REMARK    4  A    between atoms: O_5  and  C_13 
REMARK    5  A    between atoms: O_6  and  C_14 
REMARK    6  A    between atoms: C_11  and  C_15 
ROOT
HETATM    1  O   UNL     1      40.840  44.781  37.420  1.00  0.00    -0.328 OA
HETATM    2  C   UNL     1      39.962  43.948  35.248  1.00  0.00     0.168 C 
HETATM    3  C   UNL     1      40.770  45.047  35.993  1.00  0.00     0.166 C 
HETATM    4  C   UNL     1      40.362  42.529  35.711  1.00  0.00     0.172 C 
HETATM    5  C   UNL     1      40.484  42.420  37.230  1.00  0.00     0.197 C 
HETATM    6  C   UNL     1      41.402  43.521  37.759  1.00  0.00     0.263 C 
ENDROOT
BRANCH   3   7
HETATM    7  C   UNL     1      40.134  46.436  35.916  1.00  0.00     0.178 C 
BRANCH   7   8
HETATM    8  S   UNL     1      40.518  47.345  34.455  1.00  0.00     0.118 S 
HETATM    9  O   UNL     1      41.049  48.599  34.985  1.00  0.00    -0.594 OA
HETATM   10  O   UNL     1      39.234  47.452  33.772  1.00  0.00    -0.594 OA
HETATM   11  O   UNL     1      41.505  46.496  33.795  1.00  0.00    -0.594 OA
ENDBRANCH   7   8
ENDBRANCH   3   7
BRANCH   2  12
HETATM   12  O   UNL     1      40.164  43.983  33.833  1.00  0.00    -0.380 OA
HETATM   13  H   UNL     1      39.892  43.110  33.452  1.00  0.00     0.211 HD
ENDBRANCH   2  12
BRANCH   6  14
HETATM   14  O   UNL     1      42.722  43.406  37.279  1.00  0.00    -0.359 OA
HETATM   15  H   UNL     1      42.675  42.744  36.568  1.00  0.00     0.213 HD
ENDBRANCH   6  14
BRANCH   4  16
HETATM   16  O   UNL     1      39.387  41.556  35.275  1.00  0.00    -0.380 OA
HETATM   17  H   UNL     1      38.910  41.287  36.081  1.00  0.00     0.211 HD
ENDBRANCH   4  16
BRANCH   5  18
HETATM   18  O   UNL     1      39.166  42.539  37.816  1.00  0.00    -0.378 OA
HETATM   19  H   UNL     1      39.154  41.936  38.587  1.00  0.00     0.211 HD
ENDBRANCH   5  18
TORSDOF 6
ENDMDL
MODEL 5
REMARK VINA RESULT:    -4.410      2.247      3.363
REMARK INTER + INTRA:          -5.631
REMARK INTER:                  -5.207
REMARK INTRA:                  -0.424
REMARK UNBOUND:                -0.189
REMARK  6 active torsions:
REMARK  status: ('A' for Active; 'I' for Inactive)
REMARK    1  A    between atoms: S_1  and  C_15 
REMARK    2  A    between atoms: O_3  and  C_10 
REMARK    3  A    between atoms: O_4  and  C_12 
REMARK    4  A    between atoms: O_5  and  C_13 
REMARK    5  A    between atoms: O_6  and  C_14 
REMARK    6  A    between atoms: C_11  and  C_15 
ROOT
HETATM    1  O   UNL     1      43.517  45.924  33.565  1.00  0.00    -0.328 OA
HETATM    2  C   UNL     1      42.019  47.890  33.288  1.00  0.00     0.168 C 
HETATM    3  C   UNL     1      42.366  46.620  34.114  1.00  0.00     0.166 C 
HETATM    4  C   UNL     1      43.281  48.715  32.948  1.00  0.00     0.172 C 
HETATM    5  C   UNL     1      44.440  47.843  32.466  1.00  0.00     0.197 C 
HETATM    6  C   UNL     1      44.693  46.715  33.466  1.00  0.00     0.263 C 
ENDROOT
BRANCH   3   7
HETATM    7  C   UNL     1      41.264  45.559  34.102  1.00  0.00     0.178 C 
BRANCH   7   8
HETATM    8  S   UNL     1      40.296  45.481  35.573  1.00  0.00     0.118 S 
HETATM    9  O   UNL     1      39.473  46.685  35.483  1.00  0.00    -0.594 OA
HETATM   10  O   UNL     1      41.291  45.486  36.639  1.00  0.00    -0.594 OA
HETATM   11  O   UNL     1      39.562  44.229  35.413  1.00  0.00    -0.594 OA
ENDBRANCH   7   8
ENDBRANCH   3   7
BRANCH   2  12
HETATM   12  O   UNL     1      41.135  48.772  33.983  1.00  0.00    -0.380 OA
HETATM   13  H   UNL     1      41.296  48.681  34.956  1.00  0.00     0.211 HD
ENDBRANCH   2  12
BRANCH   6  14
HETATM   14  O   UNL     1      45.096  47.189  34.730  1.00  0.00    -0.359 OA
HETATM   15  H   UNL     1      45.303  48.131  34.593  1.00  0.00     0.213 HD
ENDBRANCH   6  14
BRANCH   4  16
HETATM   16  O   UNL     1      42.995  49.681  31.913  1.00  0.00    -0.380 OA
HETATM   17  H   UNL     1      43.785  50.251  31.864  1.00  0.00     0.211 HD
ENDBRANCH   4  16
BRANCH   5  18
HETATM   18  O   UNL     1      44.109  47.298  31.167  1.00  0.00    -0.378 OA
HETATM   19  H   UNL     1      44.088  46.326  31.275  1.00  0.00     0.211 HD
ENDBRANCH   5  18
TORSDOF 6
ENDMDL
MODEL 6
REMARK VINA RESULT:    -4.367      3.292      4.203
REMARK INTER + INTRA:          -5.577
REMARK INTER:                  -5.094
REMARK INTRA:                  -0.483
REMARK UNBOUND:                -0.189
REMARK  6 active torsions:
REMARK  status: ('A' for Active; 'I' for Inactive)
REMARK    1  A    between atoms: S_1  and  C_15 
REMARK    2  A    between atoms: O_3  and  C_10 
REMARK    3  A    between atoms: O_4  and  C_12 
REMARK    4  A    between atoms: O_5  and  C_13 
REMARK    5  A    between atoms: O_6  and  C_14 
REMARK    6  A    between atoms: C_11  and  C_15 
ROOT
HETATM    1  O   UNL     1      41.449  44.836  34.056  1.00  0.00    -0.328 OA
HETATM    2  C   UNL     1      42.341  46.351  32.297  1.00  0.00     0.168 C 
HETATM    3  C   UNL     1      42.141  44.887  32.780  1.00  0.00     0.166 C 
HETATM    4  C   UNL     1      41.054  47.190  32.467  1.00  0.00     0.172 C 
HETATM    5  C   UNL     1      40.385  46.970  33.823  1.00  0.00     0.197 C 
HETATM    6  C   UNL     1      40.180  45.475  34.065  1.00  0.00     0.263 C 
ENDROOT
BRANCH   3   7
HETATM    7  C   UNL     1      43.452  44.145  33.051  1.00  0.00     0.178 C 
BRANCH   7   8
HETATM    8  S   UNL     1      44.269  43.538  31.612  1.00  0.00     0.118 S 
HETATM    9  O   UNL     1      44.839  42.273  32.072  1.00  0.00    -0.594 OA
HETATM   10  O   UNL     1      45.239  44.582  31.304  1.00  0.00    -0.594 OA
HETATM   11  O   UNL     1      43.178  43.401  30.652  1.00  0.00    -0.594 OA
ENDBRANCH   7   8
ENDBRANCH   3   7
BRANCH   2  12
HETATM   12  O   UNL     1      42.694  46.429  30.914  1.00  0.00    -0.380 OA
HETATM   13  H   UNL     1      41.975  46.008  30.379  1.00  0.00     0.211 HD
ENDBRANCH   2  12
BRANCH   6  14
HETATM   14  O   UNL     1      39.307  44.887  33.128  1.00  0.00    -0.359 OA
HETATM   15  H   UNL     1      38.982  45.627  32.586  1.00  0.00     0.213 HD
ENDBRANCH   6  14
BRANCH   4  16
HETATM   16  O   UNL     1      41.346  48.599  32.343  1.00  0.00    -0.380 OA
HETATM   17  H   UNL     1      42.217  48.723  32.763  1.00  0.00     0.211 HD
ENDBRANCH   4  16
BRANCH   5  18
HETATM   18  O   UNL     1      41.223  47.536  34.858  1.00  0.00    -0.378 OA
HETATM   19  H   UNL     1      41.881  46.849  35.085  1.00  0.00     0.211 HD
ENDBRANCH   5  18
TORSDOF 6
ENDMDL
MODEL 7
REMARK VINA RESULT:    -4.343      3.053      5.483
REMARK INTER + INTRA:          -5.548
REMARK INTER:                  -5.109
REMARK INTRA:                  -0.438
REMARK UNBOUND:                -0.189
REMARK  6 active torsions:
REMARK  status: ('A' for Active; 'I' for Inactive)
REMARK    1  A    between atoms: S_1  and  C_15 
REMARK    2  A    between atoms: O_3  and  C_10 
REMARK    3  A    between atoms: O_4  and  C_12 
REMARK    4  A    between atoms: O_5  and  C_13 
REMARK    5  A    between atoms: O_6  and  C_14 
REMARK    6  A    between atoms: C_11  and  C_15 
ROOT
HETATM    1  O   UNL     1      42.765  45.748  34.000  1.00  0.00    -0.328 OA
HETATM    2  C   UNL     1      41.430  47.734  33.325  1.00  0.00     0.168 C 
HETATM    3  C   UNL     1      42.755  46.937  33.165  1.00  0.00     0.166 C 
HETATM    4  C   UNL     1      40.195  46.804  33.293  1.00  0.00     0.172 C 
HETATM    5  C   UNL     1      40.383  45.551  34.146  1.00  0.00     0.197 C 
HETATM    6  C   UNL     1      41.688  44.852  33.766  1.00  0.00     0.263 C 
ENDROOT
BRANCH   3   7
HETATM    7  C   UNL     1      43.994  47.709  33.622  1.00  0.00     0.178 C 
BRANCH   7   8
HETATM    8  S   UNL     1      44.826  48.594  32.344  1.00  0.00     0.118 S 
HETATM    9  O   UNL     1      44.616  47.747  31.172  1.00  0.00    -0.594 OA
HETATM   10  O   UNL     1      46.202  48.669  32.820  1.00  0.00    -0.594 OA
HETATM   11  O   UNL     1      44.109  49.866  32.312  1.00  0.00    -0.594 OA
ENDBRANCH   7   8
ENDBRANCH   3   7
BRANCH   2  12
HETATM   12  O   UNL     1      41.238  48.694  32.283  1.00  0.00    -0.380 OA
HETATM   13  H   UNL     1      40.473  48.407  31.724  1.00  0.00     0.211 HD
ENDBRANCH   2  12
BRANCH   6  14
HETATM   14  O   UNL     1      41.689  44.390  32.435  1.00  0.00    -0.359 OA
HETATM   15  H   UNL     1      41.789  43.424  32.503  1.00  0.00     0.213 HD
ENDBRANCH   6  14
BRANCH   4  16
HETATM   16  O   UNL     1      39.024  47.496  33.777  1.00  0.00    -0.380 OA
HETATM   17  H   UNL     1      38.303  47.245  33.169  1.00  0.00     0.211 HD
ENDBRANCH   4  16
BRANCH   5  18
HETATM   18  O   UNL     1      40.405  45.931  35.542  1.00  0.00    -0.378 OA
HETATM   19  H   UNL     1      41.090  46.624  35.627  1.00  0.00     0.211 HD
ENDBRANCH   5  18
TORSDOF 6
ENDMDL
MODEL 8
REMARK VINA RESULT:    -4.269      2.827      4.798
REMARK INTER + INTRA:          -5.456
REMARK INTER:                  -5.040
REMARK INTRA:                  -0.416
REMARK UNBOUND:                -0.189
REMARK  6 active torsions:
REMARK  status: ('A' for Active; 'I' for Inactive)
REMARK    1  A    between atoms: S_1  and  C_15 
REMARK    2  A    between atoms: O_3  and  C_10 
REMARK    3  A    between atoms: O_4  and  C_12 
REMARK    4  A    between atoms: O_5  and  C_13 
REMARK    5  A    between atoms: O_6  and  C_14 
REMARK    6  A    between atoms: C_11  and  C_15 
ROOT
HETATM    1  O   UNL     1      41.675  44.492  33.691  1.00  0.00    -0.328 OA
HETATM    2  C   UNL     1      41.887  46.925  34.161  1.00  0.00     0.168 C 
HETATM    3  C   UNL     1      42.026  45.781  33.119  1.00  0.00     0.166 C 
HETATM    4  C   UNL     1      40.570  46.813  34.962  1.00  0.00     0.172 C 
HETATM    5  C   UNL     1      40.286  45.385  35.426  1.00  0.00     0.197 C 
HETATM    6  C   UNL     1      40.366  44.426  34.239  1.00  0.00     0.263 C 
ENDROOT
BRANCH   3   7
HETATM    7  C   UNL     1      43.458  45.575  32.619  1.00  0.00     0.178 C 
BRANCH   7   8
HETATM    8  S   UNL     1      43.754  46.133  30.973  1.00  0.00     0.118 S 
HETATM    9  O   UNL     1      45.198  45.966  30.830  1.00  0.00    -0.594 OA
HETATM   10  O   UNL     1      43.285  47.514  30.991  1.00  0.00    -0.594 OA
HETATM   11  O   UNL     1      42.952  45.214  30.170  1.00  0.00    -0.594 OA
ENDBRANCH   7   8
ENDBRANCH   3   7
BRANCH   2  12
HETATM   12  O   UNL     1      41.883  48.221  33.556  1.00  0.00    -0.380 OA
HETATM   13  H   UNL     1      42.254  48.873  34.202  1.00  0.00     0.211 HD
ENDBRANCH   2  12
BRANCH   6  14
HETATM   14  O   UNL     1      39.390  44.692  33.258  1.00  0.00    -0.359 OA
HETATM   15  H   UNL     1      39.868  44.665  32.411  1.00  0.00     0.213 HD
ENDBRANCH   6  14
BRANCH   4  16
HETATM   16  O   UNL     1      40.613  47.657  36.133  1.00  0.00    -0.380 OA
HETATM   17  H   UNL     1      39.946  47.290  36.744  1.00  0.00     0.211 HD
ENDBRANCH   4  16
BRANCH   5  18
HETATM   18  O   UNL     1      41.254  45.017  36.436  1.00  0.00    -0.378 OA
HETATM   19  H   UNL     1      42.039  45.581  36.282  1.00  0.00     0.211 HD
ENDBRANCH   5  18
TORSDOF 6
ENDMDL
MODEL 9
REMARK VINA RESULT:    -4.252      1.914      2.936
REMARK INTER + INTRA:          -5.435
REMARK INTER:                  -5.112
REMARK INTRA:                  -0.323
REMARK UNBOUND:                -0.189
REMARK  6 active torsions:
REMARK  status: ('A' for Active; 'I' for Inactive)
REMARK    1  A    between atoms: S_1  and  C_15 
REMARK    2  A    between atoms: O_3  and  C_10 
REMARK    3  A    between atoms: O_4  and  C_12 
REMARK    4  A    between atoms: O_5  and  C_13 
REMARK    5  A    between atoms: O_6  and  C_14 
REMARK    6  A    between atoms: C_11  and  C_15 
ROOT
HETATM    1  O   UNL     1      40.384  45.839  35.865  1.00  0.00    -0.328 OA
HETATM    2  C   UNL     1      41.230  43.703  34.913  1.00  0.00     0.168 C 
HETATM    3  C   UNL     1      40.202  44.398  35.850  1.00  0.00     0.166 C 
HETATM    4  C   UNL     1      41.362  44.441  33.561  1.00  0.00     0.172 C 
HETATM    5  C   UNL     1      41.455  45.957  33.726  1.00  0.00     0.197 C 
HETATM    6  C   UNL     1      40.298  46.459  34.590  1.00  0.00     0.263 C 
ENDROOT
BRANCH   3   7
HETATM    7  C   UNL     1      40.346  44.000  37.320  1.00  0.00     0.178 C 
BRANCH   7   8
HETATM    8  S   UNL     1      39.216  42.761  37.865  1.00  0.00     0.118 S 
HETATM    9  O   UNL     1      39.254  41.787  36.776  1.00  0.00    -0.594 OA
HETATM   10  O   UNL     1      37.959  43.485  38.010  1.00  0.00    -0.594 OA
HETATM   11  O   UNL     1      39.817  42.302  39.114  1.00  0.00    -0.594 OA
ENDBRANCH   7   8
ENDBRANCH   3   7
BRANCH   2  12
HETATM   12  O   UNL     1      40.869  42.355  34.604  1.00  0.00    -0.380 OA
HETATM   13  H   UNL     1      40.913  41.818  35.434  1.00  0.00     0.211 HD
ENDBRANCH   2  12
BRANCH   6  14
HETATM   14  O   UNL     1      39.040  46.234  33.997  1.00  0.00    -0.359 OA
HETATM   15  H   UNL     1      39.091  46.663  33.125  1.00  0.00     0.213 HD
ENDBRANCH   6  14
BRANCH   4  16
HETATM   16  O   UNL     1      42.541  44.001  32.853  1.00  0.00    -0.380 OA
HETATM   17  H   UNL     1      42.831  44.769  32.327  1.00  0.00     0.211 HD
ENDBRANCH   4  16
BRANCH   5  18
HETATM   18  O   UNL     1      42.722  46.285  34.343  1.00  0.00    -0.378 OA
HETATM   19  H   UNL     1      43.374  46.346  33.616  1.00  0.00     0.211 HD
ENDBRANCH   5  18
TORSDOF 6
ENDMDL
MODEL 10
REMARK VINA RESULT:    -4.248      1.700      3.026
REMARK INTER + INTRA:          -5.431
REMARK INTER:                  -5.016
REMARK INTRA:                  -0.415
REMARK UNBOUND:                -0.189
REMARK  6 active torsions:
REMARK  status: ('A' for Active; 'I' for Inactive)
REMARK    1  A    between atoms: S_1  and  C_15 
REMARK    2  A    between atoms: O_3  and  C_10 
REMARK    3  A    between atoms: O_4  and  C_12 
REMARK    4  A    between atoms: O_5  and  C_13 
REMARK    5  A    between atoms: O_6  and  C_14 
REMARK    6  A    between atoms: C_11  and  C_15 
ROOT
HETATM    1  O   UNL     1      41.207  45.870  33.148  1.00  0.00    -0.328 OA
HETATM    2  C   UNL     1      41.629  47.435  35.035  1.00  0.00     0.168 C 
HETATM    3  C   UNL     1      41.413  45.963  34.583  1.00  0.00     0.166 C 
HETATM    4  C   UNL     1      42.611  48.181  34.103  1.00  0.00     0.172 C 
HETATM    5  C   UNL     1      42.328  47.921  32.624  1.00  0.00     0.197 C 
HETATM    6  C   UNL     1      42.258  46.416  32.364  1.00  0.00     0.263 C 
ENDROOT
BRANCH   3   7
HETATM    7  C   UNL     1      40.155  45.319  35.170  1.00  0.00     0.178 C 
BRANCH   7   8
HETATM    8  S   UNL     1      40.458  44.096  36.404  1.00  0.00     0.118 S 
HETATM    9  O   UNL     1      41.285  44.812  37.373  1.00  0.00    -0.594 OA
HETATM   10  O   UNL     1      41.135  43.033  35.673  1.00  0.00    -0.594 OA
HETATM   11  O   UNL     1      39.114  43.770  36.873  1.00  0.00    -0.594 OA
ENDBRANCH   7   8
ENDBRANCH   3   7
BRANCH   2  12
HETATM   12  O   UNL     1      42.172  47.530  36.353  1.00  0.00    -0.380 OA
HETATM   13  H   UNL     1      41.885  46.737  36.872  1.00  0.00     0.211 HD
ENDBRANCH   2  12
BRANCH   6  14
HETATM   14  O   UNL     1      43.479  45.762  32.622  1.00  0.00    -0.359 OA
HETATM   15  H   UNL     1      44.167  46.418  32.413  1.00  0.00     0.213 HD
ENDBRANCH   6  14
BRANCH   4  16
HETATM   16  O   UNL     1      42.538  49.606  34.322  1.00  0.00    -0.380 OA
HETATM   17  H   UNL     1      43.392  49.852  34.725  1.00  0.00     0.211 HD
ENDBRANCH   4  16
BRANCH   5  18
HETATM   18  O   UNL     1      41.076  48.552  32.267  1.00  0.00    -0.378 OA
HETATM   19  H   UNL     1      40.369  47.979  32.623  1.00  0.00     0.211 HD
ENDBRANCH   5  18
TORSDOF 6
ENDMDL
