MODEL 1
REMARK VINA RESULT:    -5.593      0.000      0.000
REMARK INTER + INTRA:          -7.099
REMARK INTER:                  -6.674
REMARK INTRA:                  -0.425
REMARK UNBOUND:                -0.199
REMARK  6 active torsions:
REMARK  status: ('A' for Active; 'I' for Inactive)
REMARK    1  A    between atoms: S_1  and  C_15 
REMARK    2  A    between atoms: O_3  and  C_10 
REMARK    3  A    between atoms: O_4  and  C_12 
REMARK    4  A    between atoms: O_5  and  C_13 
REMARK    5  A    between atoms: O_6  and  C_14 
REMARK    6  A    between atoms: C_11  and  C_15 
ROOT
HETATM    1  O   UNL     1      41.467  45.705  35.517  1.00  0.00    -0.328 OA
HETATM    2  C   UNL     1      40.085  45.899  33.459  1.00  0.00     0.168 C 
HETATM    3  C   UNL     1      40.296  45.192  34.827  1.00  0.00     0.166 C 
HETATM    4  C   UNL     1      40.256  47.432  33.574  1.00  0.00     0.172 C 
HETATM    5  C   UNL     1      41.480  47.824  34.400  1.00  0.00     0.197 C 
HETATM    6  C   UNL     1      41.449  47.107  35.749  1.00  0.00     0.263 C 
ENDROOT
BRANCH   3   7
HETATM    7  C   UNL     1      40.577  43.693  34.707  1.00  0.00     0.178 C 
BRANCH   7   8
HETATM    8  S   UNL     1      39.204  42.652  35.079  1.00  0.00     0.118 S 
HETATM    9  O   UNL     1      39.819  41.331  35.187  1.00  0.00    -0.594 OA
HETATM   10  O   UNL     1      38.316  42.834  33.936  1.00  0.00    -0.594 OA
HETATM   11  O   UNL     1      38.713  43.200  36.340  1.00  0.00    -0.594 OA
ENDBRANCH   7   8
ENDBRANCH   3   7
BRANCH   2  12
HETATM   12  O   UNL     1      38.778  45.678  32.923  1.00  0.00    -0.380 OA
HETATM   13  H   UNL     1      38.635  44.703  32.829  1.00  0.00     0.211 HD
ENDBRANCH   2  12
BRANCH   6  14
HETATM   14  O   UNL     1      40.343  47.478  36.538  1.00  0.00    -0.359 OA
HETATM   15  H   UNL     1      39.621  47.635  35.904  1.00  0.00     0.213 HD
ENDBRANCH   6  14
BRANCH   4  16
HETATM   16  O   UNL     1      40.396  48.028  32.266  1.00  0.00    -0.380 OA
HETATM   17  H   UNL     1      41.226  48.540  32.301  1.00  0.00     0.211 HD
ENDBRANCH   4  16
BRANCH   5  18
HETATM   18  O   UNL     1      42.676  47.468  33.668  1.00  0.00    -0.378 OA
HETATM   19  H   UNL     1      43.209  46.910  34.268  1.00  0.00     0.211 HD
ENDBRANCH   5  18
TORSDOF 6
ENDMDL
MODEL 2
REMARK VINA RESULT:    -5.307      1.630      2.504
REMARK INTER + INTRA:          -6.747
REMARK INTER:                  -6.548
REMARK INTRA:                  -0.199
REMARK UNBOUND:                -0.199
REMARK  6 active torsions:
REMARK  status: ('A' for Active; 'I' for Inactive)
REMARK    1  A    between atoms: S_1  and  C_15 
REMARK    2  A    between atoms: O_3  and  C_10 
REMARK    3  A    between atoms: O_4  and  C_12 
REMARK    4  A    between atoms: O_5  and  C_13 
REMARK    5  A    between atoms: O_6  and  C_14 
REMARK    6  A    between atoms: C_11  and  C_15 
ROOT
HETATM    1  O   UNL     1      39.288  45.966  34.327  1.00  0.00    -0.328 OA
HETATM    2  C   UNL     1      41.435  45.478  33.172  1.00  0.00     0.168 C 
HETATM    3  C   UNL     1      40.161  44.906  33.854  1.00  0.00     0.166 C 
HETATM    4  C   UNL     1      41.096  46.636  32.205  1.00  0.00     0.172 C 
HETATM    5  C   UNL     1      40.100  47.627  32.803  1.00  0.00     0.197 C 
HETATM    6  C   UNL     1      38.871  46.880  33.323  1.00  0.00     0.263 C 
ENDROOT
BRANCH   3   7
HETATM    7  C   UNL     1      40.453  44.090  35.114  1.00  0.00     0.178 C 
BRANCH   7   8
HETATM    8  S   UNL     1      39.553  42.579  35.243  1.00  0.00     0.118 S 
HETATM    9  O   UNL     1      38.925  42.688  36.558  1.00  0.00    -0.594 OA
HETATM   10  O   UNL     1      40.584  41.555  35.127  1.00  0.00    -0.594 OA
HETATM   11  O   UNL     1      38.626  42.658  34.117  1.00  0.00    -0.594 OA
ENDBRANCH   7   8
ENDBRANCH   3   7
BRANCH   2  12
HETATM   12  O   UNL     1      42.132  44.498  32.399  1.00  0.00    -0.380 OA
HETATM   13  H   UNL     1      41.508  44.122  31.727  1.00  0.00     0.211 HD
ENDBRANCH   2  12
BRANCH   6  14
HETATM   14  O   UNL     1      38.161  46.223  32.298  1.00  0.00    -0.359 OA
HETATM   15  H   UNL     1      37.817  45.411  32.710  1.00  0.00     0.213 HD
ENDBRANCH   6  14
BRANCH   4  16
HETATM   16  O   UNL     1      42.289  47.369  31.850  1.00  0.00    -0.380 OA
HETATM   17  H   UNL     1      42.559  47.836  32.663  1.00  0.00     0.211 HD
ENDBRANCH   4  16
BRANCH   5  18
HETATM   18  O   UNL     1      40.742  48.347  33.881  1.00  0.00    -0.378 OA
HETATM   19  H   UNL     1      40.248  48.123  34.694  1.00  0.00     0.211 HD
ENDBRANCH   5  18
TORSDOF 6
ENDMDL
MODEL 3
REMARK VINA RESULT:    -4.947      1.625      2.474
REMARK INTER + INTRA:          -6.303
REMARK INTER:                  -5.870
REMARK INTRA:                  -0.433
REMARK UNBOUND:                -0.199
REMARK  6 active torsions:
REMARK  status: ('A' for Active; 'I' for Inactive)
REMARK    1  A    between atoms: S_1  and  C_15 
REMARK    2  A    between atoms: O_3  and  C_10 
REMARK    3  A    between atoms: O_4  and  C_12 
REMARK    4  A    between atoms: O_5  and  C_13 
REMARK    5  A    between atoms: O_6  and  C_14 
REMARK    6  A    between atoms: C_11  and  C_15 
ROOT
HETATM    1  O   UNL     1      41.834  44.542  33.182  1.00  0.00    -0.328 OA
HETATM    2  C   UNL     1      40.188  45.976  34.374  1.00  0.00     0.168 C 
HETATM    3  C   UNL     1      41.011  44.657  34.374  1.00  0.00     0.166 C 
HETATM    4  C   UNL     1      41.051  47.189  33.958  1.00  0.00     0.172 C 
HETATM    5  C   UNL     1      41.930  46.895  32.744  1.00  0.00     0.197 C 
HETATM    6  C   UNL     1      42.738  45.620  32.982  1.00  0.00     0.263 C 
ENDROOT
BRANCH   3   7
HETATM    7  C   UNL     1      40.148  43.394  34.340  1.00  0.00     0.178 C 
BRANCH   7   8
HETATM    8  S   UNL     1      39.891  42.631  35.908  1.00  0.00     0.118 S 
HETATM    9  O   UNL     1      38.846  43.460  36.504  1.00  0.00    -0.594 OA
HETATM   10  O   UNL     1      41.198  42.719  36.549  1.00  0.00    -0.594 OA
HETATM   11  O   UNL     1      39.466  41.282  35.546  1.00  0.00    -0.594 OA
ENDBRANCH   7   8
ENDBRANCH   3   7
BRANCH   2  12
HETATM   12  O   UNL     1      39.649  46.286  35.661  1.00  0.00    -0.380 OA
HETATM   13  H   UNL     1      40.294  46.859  36.146  1.00  0.00     0.211 HD
ENDBRANCH   2  12
BRANCH   6  14
HETATM   14  O   UNL     1      43.636  45.739  34.062  1.00  0.00    -0.359 OA
HETATM   15  H   UNL     1      43.245  46.415  34.643  1.00  0.00     0.213 HD
ENDBRANCH   6  14
BRANCH   4  16
HETATM   16  O   UNL     1      40.214  48.321  33.635  1.00  0.00    -0.380 OA
HETATM   17  H   UNL     1      39.396  48.196  34.150  1.00  0.00     0.211 HD
ENDBRANCH   4  16
BRANCH   5  18
HETATM   18  O   UNL     1      41.086  46.745  31.578  1.00  0.00    -0.378 OA
HETATM   19  H   UNL     1      40.533  47.551  31.534  1.00  0.00     0.211 HD
ENDBRANCH   5  18
TORSDOF 6
ENDMDL
MODEL 4
REMARK VINA RESULT:    -4.732      2.001      2.552
REMARK INTER + INTRA:          -6.037
REMARK INTER:                  -5.648
REMARK INTRA:                  -0.389
REMARK UNBOUND:                -0.199
REMARK  6 active torsions:
REMARK  status: ('A' for Active; 'I' for Inactive)
REMARK    1  A    between atoms: S_1  and  C_15 
REMARK    2  A    between atoms: O_3  and  C_10 
REMARK    3  A    between atoms: O_4  and  C_12 
REMARK    4  A    between atoms: O_5  and  C_13 
REMARK    5  A    between atoms: O_6  and  C_14 
REMARK    6  A    between atoms: C_11  and  C_15 
ROOT
HETATM    1  O   UNL     1      40.607  45.983  36.458  1.00  0.00    -0.328 OA
HETATM    2  C   UNL     1      40.819  44.049  34.908  1.00  0.00     0.168 C 
HETATM    3  C   UNL     1      40.157  44.628  36.190  1.00  0.00     0.166 C 
HETATM    4  C   UNL     1      40.806  45.070  33.747  1.00  0.00     0.172 C 
HETATM    5  C   UNL     1      41.217  46.472  34.194  1.00  0.00     0.197 C 
HETATM    6  C   UNL     1      40.380  46.901  35.398  1.00  0.00     0.263 C 
ENDROOT
BRANCH   3   7
HETATM    7  C   UNL     1      40.522  43.868  37.466  1.00  0.00     0.178 C 
BRANCH   7   8
HETATM    8  S   UNL     1      39.338  42.665  37.975  1.00  0.00     0.118 S 
HETATM    9  O   UNL     1      39.402  41.673  36.904  1.00  0.00    -0.594 OA
HETATM   10  O   UNL     1      38.093  43.421  38.051  1.00  0.00    -0.594 OA
HETATM   11  O   UNL     1      39.868  42.211  39.258  1.00  0.00    -0.594 OA
ENDBRANCH   7   8
ENDBRANCH   3   7
BRANCH   2  12
HETATM   12  O   UNL     1      40.152  42.880  34.426  1.00  0.00    -0.380 OA
HETATM   13  H   UNL     1      40.751  42.414  33.790  1.00  0.00     0.211 HD
ENDBRANCH   2  12
BRANCH   6  14
HETATM   14  O   UNL     1      39.007  47.003  35.097  1.00  0.00    -0.359 OA
HETATM   15  H   UNL     1      38.556  46.963  35.959  1.00  0.00     0.213 HD
ENDBRANCH   6  14
BRANCH   4  16
HETATM   16  O   UNL     1      41.709  44.658  32.697  1.00  0.00    -0.380 OA
HETATM   17  H   UNL     1      41.296  43.873  32.292  1.00  0.00     0.211 HD
ENDBRANCH   4  16
BRANCH   5  18
HETATM   18  O   UNL     1      42.623  46.462  34.536  1.00  0.00    -0.378 OA
HETATM   19  H   UNL     1      42.755  45.698  35.131  1.00  0.00     0.211 HD
ENDBRANCH   5  18
TORSDOF 6
ENDMDL
MODEL 5
REMARK VINA RESULT:    -4.497      2.289      4.873
REMARK INTER + INTRA:          -5.748
REMARK INTER:                  -5.354
REMARK INTRA:                  -0.394
REMARK UNBOUND:                -0.199
REMARK  6 active torsions:
REMARK  status: ('A' for Active; 'I' for Inactive)
REMARK    1  A    between atoms: S_1  and  C_15 
REMARK    2  A    between atoms: O_3  and  C_10 
REMARK    3  A    between atoms: O_4  and  C_12 
REMARK    4  A    between atoms: O_5  and  C_13 
REMARK    5  A    between atoms: O_6  and  C_14 
REMARK    6  A    between atoms: C_11  and  C_15 
ROOT
HETATM    1  O   UNL     1      41.217  44.772  37.148  1.00  0.00    -0.328 OA
HETATM    2  C   UNL     1      39.867  43.849  35.275  1.00  0.00     0.168 C 
HETATM    3  C   UNL     1      40.806  44.984  35.771  1.00  0.00     0.166 C 
HETATM    4  C   UNL     1      40.395  42.452  35.676  1.00  0.00     0.172 C 
HETATM    5  C   UNL     1      40.874  42.401  37.126  1.00  0.00     0.197 C 
HETATM    6  C   UNL     1      41.869  43.532  37.386  1.00  0.00     0.263 C 
ENDROOT
BRANCH   3   7
HETATM    7  C   UNL     1      40.141  46.361  35.801  1.00  0.00     0.178 C 
BRANCH   7   8
HETATM    8  S   UNL     1      40.289  47.287  34.308  1.00  0.00     0.118 S 
HETATM    9  O   UNL     1      41.141  46.435  33.482  1.00  0.00    -0.594 OA
HETATM   10  O   UNL     1      40.894  48.541  34.741  1.00  0.00    -0.594 OA
HETATM   11  O   UNL     1      38.905  47.390  33.852  1.00  0.00    -0.594 OA
ENDBRANCH   7   8
ENDBRANCH   3   7
BRANCH   2  12
HETATM   12  O   UNL     1      39.727  43.834  33.852  1.00  0.00    -0.380 OA
HETATM   13  H   UNL     1      40.627  43.746  33.447  1.00  0.00     0.211 HD
ENDBRANCH   2  12
BRANCH   6  14
HETATM   14  O   UNL     1      43.040  43.416  36.611  1.00  0.00    -0.359 OA
HETATM   15  H   UNL     1      43.508  42.643  36.974  1.00  0.00     0.213 HD
ENDBRANCH   6  14
BRANCH   4  16
HETATM   16  O   UNL     1      39.365  41.453  35.516  1.00  0.00    -0.380 OA
HETATM   17  H   UNL     1      38.852  41.473  36.346  1.00  0.00     0.211 HD
ENDBRANCH   4  16
BRANCH   5  18
HETATM   18  O   UNL     1      39.731  42.526  38.004  1.00  0.00    -0.378 OA
HETATM   19  H   UNL     1      39.101  41.828  37.734  1.00  0.00     0.211 HD
ENDBRANCH   5  18
TORSDOF 6
ENDMDL
MODEL 6
REMARK VINA RESULT:    -4.474      3.206      4.134
REMARK INTER + INTRA:          -5.719
REMARK INTER:                  -5.312
REMARK INTRA:                  -0.407
REMARK UNBOUND:                -0.199
REMARK  6 active torsions:
REMARK  status: ('A' for Active; 'I' for Inactive)
REMARK    1  A    between atoms: S_1  and  C_15 
REMARK    2  A    between atoms: O_3  and  C_10 
REMARK    3  A    between atoms: O_4  and  C_12 
REMARK    4  A    between atoms: O_5  and  C_13 
REMARK    5  A    between atoms: O_6  and  C_14 
REMARK    6  A    between atoms: C_11  and  C_15 
ROOT
HETATM    1  O   UNL     1      41.401  44.926  34.087  1.00  0.00    -0.328 OA
HETATM    2  C   UNL     1      41.923  46.454  32.196  1.00  0.00     0.168 C 
HETATM    3  C   UNL     1      41.991  45.008  32.762  1.00  0.00     0.166 C 
HETATM    4  C   UNL     1      40.533  47.093  32.422  1.00  0.00     0.172 C 
HETATM    5  C   UNL     1      39.999  46.851  33.832  1.00  0.00     0.197 C 
HETATM    6  C   UNL     1      40.050  45.359  34.160  1.00  0.00     0.263 C 
ENDROOT
BRANCH   3   7
HETATM    7  C   UNL     1      43.417  44.496  32.970  1.00  0.00     0.178 C 
BRANCH   7   8
HETATM    8  S   UNL     1      44.087  43.600  31.607  1.00  0.00     0.118 S 
HETATM    9  O   UNL     1      45.234  44.416  31.214  1.00  0.00    -0.594 OA
HETATM   10  O   UNL     1      42.990  43.565  30.648  1.00  0.00    -0.594 OA
HETATM   11  O   UNL     1      44.432  42.313  32.205  1.00  0.00    -0.594 OA
ENDBRANCH   7   8
ENDBRANCH   3   7
BRANCH   2  12
HETATM   12  O   UNL     1      42.167  46.505  30.788  1.00  0.00    -0.380 OA
HETATM   13  H   UNL     1      42.852  47.198  30.610  1.00  0.00     0.211 HD
ENDBRANCH   2  12
BRANCH   6  14
HETATM   14  O   UNL     1      39.222  44.589  33.320  1.00  0.00    -0.359 OA
HETATM   15  H   UNL     1      38.375  44.518  33.795  1.00  0.00     0.213 HD
ENDBRANCH   6  14
BRANCH   4  16
HETATM   16  O   UNL     1      40.588  48.520  32.208  1.00  0.00    -0.380 OA
HETATM   17  H   UNL     1      40.013  48.691  31.439  1.00  0.00     0.211 HD
ENDBRANCH   4  16
BRANCH   5  18
HETATM   18  O   UNL     1      40.802  47.601  34.774  1.00  0.00    -0.378 OA
HETATM   19  H   UNL     1      40.199  47.871  35.495  1.00  0.00     0.211 HD
ENDBRANCH   5  18
TORSDOF 6
ENDMDL
MODEL 7
REMARK VINA RESULT:    -4.341      3.025      4.856
REMARK INTER + INTRA:          -5.555
REMARK INTER:                  -5.071
REMARK INTRA:                  -0.484
REMARK UNBOUND:                -0.199
REMARK  6 active torsions:
REMARK  status: ('A' for Active; 'I' for Inactive)
REMARK    1  A    between atoms: S_1  and  C_15 
REMARK    2  A    between atoms: O_3  and  C_10 
REMARK    3  A    between atoms: O_4  and  C_12 
REMARK    4  A    between atoms: O_5  and  C_13 
REMARK    5  A    between atoms: O_6  and  C_14 
REMARK    6  A    between atoms: C_11  and  C_15 
ROOT
HETATM    1  O   UNL     1      42.037  44.886  34.035  1.00  0.00    -0.328 OA
HETATM    2  C   UNL     1      41.873  47.221  33.195  1.00  0.00     0.168 C 
HETATM    3  C   UNL     1      42.331  45.762  32.914  1.00  0.00     0.166 C 
HETATM    4  C   UNL     1      40.455  47.267  33.812  1.00  0.00     0.172 C 
HETATM    5  C   UNL     1      40.263  46.232  34.918  1.00  0.00     0.197 C 
HETATM    6  C   UNL     1      40.668  44.847  34.412  1.00  0.00     0.263 C 
ENDROOT
BRANCH   3   7
HETATM    7  C   UNL     1      43.842  45.618  32.730  1.00  0.00     0.178 C 
BRANCH   7   8
HETATM    8  S   UNL     1      44.436  46.042  31.125  1.00  0.00     0.118 S 
HETATM    9  O   UNL     1      43.289  45.749  30.268  1.00  0.00    -0.594 OA
HETATM   10  O   UNL     1      45.588  45.167  30.944  1.00  0.00    -0.594 OA
HETATM   11  O   UNL     1      44.749  47.462  31.259  1.00  0.00    -0.594 OA
ENDBRANCH   7   8
ENDBRANCH   3   7
BRANCH   2  12
HETATM   12  O   UNL     1      41.824  48.019  32.010  1.00  0.00    -0.380 OA
HETATM   13  H   UNL     1      41.424  48.896  32.236  1.00  0.00     0.211 HD
ENDBRANCH   2  12
BRANCH   6  14
HETATM   14  O   UNL     1      39.859  44.399  33.349  1.00  0.00    -0.359 OA
HETATM   15  H   UNL     1      39.271  43.731  33.743  1.00  0.00     0.213 HD
ENDBRANCH   6  14
BRANCH   4  16
HETATM   16  O   UNL     1      40.187  48.570  34.375  1.00  0.00    -0.380 OA
HETATM   17  H   UNL     1      40.802  48.660  35.127  1.00  0.00     0.211 HD
ENDBRANCH   4  16
BRANCH   5  18
HETATM   18  O   UNL     1      41.071  46.606  36.059  1.00  0.00    -0.378 OA
HETATM   19  H   UNL     1      42.000  46.433  35.805  1.00  0.00     0.211 HD
ENDBRANCH   5  18
TORSDOF 6
ENDMDL
MODEL 8
REMARK VINA RESULT:    -4.287      3.196      5.696
REMARK INTER + INTRA:          -5.488
REMARK INTER:                  -5.051
REMARK INTRA:                  -0.437
REMARK UNBOUND:                -0.199
REMARK  6 active torsions:
REMARK  status: ('A' for Active; 'I' for Inactive)
REMARK    1  A    between atoms: S_1  and  C_15 
REMARK    2  A    between atoms: O_3  and  C_10 
REMARK    3  A    between atoms: O_4  and  C_12 
REMARK    4  A    between atoms: O_5  and  C_13 
REMARK    5  A    between atoms: O_6  and  C_14 
REMARK    6  A    between atoms: C_11  and  C_15 
ROOT
HETATM    1  O   UNL     1      42.991  45.740  33.871  1.00  0.00    -0.328 OA
HETATM    2  C   UNL     1      41.544  47.675  33.284  1.00  0.00     0.168 C 
HETATM    3  C   UNL     1      42.917  46.969  33.100  1.00  0.00     0.166 C 
HETATM    4  C   UNL     1      40.368  46.676  33.188  1.00  0.00     0.172 C 
HETATM    5  C   UNL     1      40.623  45.393  33.977  1.00  0.00     0.197 C 
HETATM    6  C   UNL     1      41.972  44.795  33.577  1.00  0.00     0.263 C 
ENDROOT
BRANCH   3   7
HETATM    7  C   UNL     1      44.103  47.788  33.611  1.00  0.00     0.178 C 
BRANCH   7   8
HETATM    8  S   UNL     1      44.897  48.782  32.391  1.00  0.00     0.118 S 
HETATM    9  O   UNL     1      44.746  47.984  31.175  1.00  0.00    -0.594 OA
HETATM   10  O   UNL     1      46.262  48.907  32.887  1.00  0.00    -0.594 OA
HETATM   11  O   UNL     1      44.112  50.013  32.413  1.00  0.00    -0.594 OA
ENDBRANCH   7   8
ENDBRANCH   3   7
BRANCH   2  12
HETATM   12  O   UNL     1      41.305  48.677  32.292  1.00  0.00    -0.380 OA
HETATM   13  H   UNL     1      40.991  49.500  32.743  1.00  0.00     0.211 HD
ENDBRANCH   2  12
BRANCH   6  14
HETATM   14  O   UNL     1      42.014  44.405  32.224  1.00  0.00    -0.359 OA
HETATM   15  H   UNL     1      42.709  44.955  31.823  1.00  0.00     0.213 HD
ENDBRANCH   6  14
BRANCH   4  16
HETATM   16  O   UNL     1      39.153  47.271  33.692  1.00  0.00    -0.380 OA
HETATM   17  H   UNL     1      39.438  48.049  34.207  1.00  0.00     0.211 HD
ENDBRANCH   4  16
BRANCH   5  18
HETATM   18  O   UNL     1      40.609  45.700  35.391  1.00  0.00    -0.378 OA
HETATM   19  H   UNL     1      41.428  45.317  35.763  1.00  0.00     0.211 HD
ENDBRANCH   5  18
TORSDOF 6
ENDMDL
MODEL 9
REMARK VINA RESULT:    -4.174      2.788      5.624
REMARK INTER + INTRA:          -5.349
REMARK INTER:                  -4.941
REMARK INTRA:                  -0.409
REMARK UNBOUND:                -0.199
REMARK  6 active torsions:
REMARK  status: ('A' for Active; 'I' for Inactive)
REMARK    1  A    between atoms: S_1  and  C_15 
REMARK    2  A    between atoms: O_3  and  C_10 
REMARK    3  A    between atoms: O_4  and  C_12 
REMARK    4  A    between atoms: O_5  and  C_13 
REMARK    5  A    between atoms: O_6  and  C_14 
REMARK    6  A    between atoms: C_11  and  C_15 
ROOT
HETATM    1  O   UNL     1      39.254  43.336  36.247  1.00  0.00    -0.328 OA
HETATM    2  C   UNL     1      41.383  43.759  37.460  1.00  0.00     0.168 C 
HETATM    3  C   UNL     1      40.224  44.354  36.613  1.00  0.00     0.166 C 
HETATM    4  C   UNL     1      40.858  42.814  38.565  1.00  0.00     0.172 C 
HETATM    5  C   UNL     1      39.781  41.858  38.056  1.00  0.00     0.197 C 
HETATM    6  C   UNL     1      38.679  42.645  37.347  1.00  0.00     0.263 C 
ENDROOT
BRANCH   3   7
HETATM    7  C   UNL     1      40.676  44.923  35.267  1.00  0.00     0.178 C 
BRANCH   7   8
HETATM    8  S   UNL     1      40.597  46.680  35.142  1.00  0.00     0.118 S 
HETATM    9  O   UNL     1      39.159  46.937  35.102  1.00  0.00    -0.594 OA
HETATM   10  O   UNL     1      41.316  46.967  33.906  1.00  0.00    -0.594 OA
HETATM   11  O   UNL     1      41.261  47.122  36.364  1.00  0.00    -0.594 OA
ENDBRANCH   7   8
ENDBRANCH   3   7
BRANCH   2  12
HETATM   12  O   UNL     1      42.153  44.766  38.122  1.00  0.00    -0.380 OA
HETATM   13  H   UNL     1      43.104  44.653  37.872  1.00  0.00     0.211 HD
ENDBRANCH   2  12
BRANCH   6  14
HETATM   14  O   UNL     1      38.003  43.531  38.208  1.00  0.00    -0.359 OA
HETATM   15  H   UNL     1      38.079  44.404  37.785  1.00  0.00     0.213 HD
ENDBRANCH   6  14
BRANCH   4  16
HETATM   16  O   UNL     1      41.934  42.018  39.108  1.00  0.00    -0.380 OA
HETATM   17  H   UNL     1      42.440  41.702  38.336  1.00  0.00     0.211 HD
ENDBRANCH   4  16
BRANCH   5  18
HETATM   18  O   UNL     1      40.386  40.908  37.147  1.00  0.00    -0.378 OA
HETATM   19  H   UNL     1      41.297  41.225  36.987  1.00  0.00     0.211 HD
ENDBRANCH   5  18
TORSDOF 6
ENDMDL
MODEL 10
REMARK VINA RESULT:    -3.978      2.224      2.984
REMARK INTER + INTRA:          -5.107
REMARK INTER:                  -4.719
REMARK INTRA:                  -0.388
REMARK UNBOUND:                -0.199
REMARK  6 active torsions:
REMARK  status: ('A' for Active; 'I' for Inactive)
REMARK    1  A    between atoms: S_1  and  C_15 
REMARK    2  A    between atoms: O_3  and  C_10 
REMARK    3  A    between atoms: O_4  and  C_12 
REMARK    4  A    between atoms: O_5  and  C_13 
REMARK    5  A    between atoms: O_6  and  C_14 
REMARK    6  A    between atoms: C_11  and  C_15 
ROOT
HETATM    1  O   UNL     1      43.463  47.191  35.150  1.00  0.00    -0.328 OA
HETATM    2  C   UNL     1      42.197  47.063  33.013  1.00  0.00     0.168 C 
HETATM    3  C   UNL     1      42.157  46.943  34.562  1.00  0.00     0.166 C 
HETATM    4  C   UNL     1      42.982  48.313  32.555  1.00  0.00     0.172 C 
HETATM    5  C   UNL     1      44.292  48.495  33.319  1.00  0.00     0.197 C 
HETATM    6  C   UNL     1      44.027  48.454  34.824  1.00  0.00     0.263 C 
ENDROOT
BRANCH   3   7
HETATM    7  C   UNL     1      41.797  45.543  35.061  1.00  0.00     0.178 C 
BRANCH   7   8
HETATM    8  S   UNL     1      40.119  45.346  35.566  1.00  0.00     0.118 S 
HETATM    9  O   UNL     1      40.240  45.082  36.998  1.00  0.00    -0.594 OA
HETATM   10  O   UNL     1      39.651  44.223  34.763  1.00  0.00    -0.594 OA
HETATM   11  O   UNL     1      39.527  46.638  35.233  1.00  0.00    -0.594 OA
ENDBRANCH   7   8
ENDBRANCH   3   7
BRANCH   2  12
HETATM   12  O   UNL     1      40.893  47.172  32.437  1.00  0.00    -0.380 OA
HETATM   13  H   UNL     1      40.958  47.702  31.604  1.00  0.00     0.211 HD
ENDBRANCH   2  12
BRANCH   6  14
HETATM   14  O   UNL     1      43.201  49.509  35.260  1.00  0.00    -0.359 OA
HETATM   15  H   UNL     1      42.353  49.088  35.489  1.00  0.00     0.213 HD
ENDBRANCH   6  14
BRANCH   4  16
HETATM   16  O   UNL     1      43.300  48.228  31.148  1.00  0.00    -0.380 OA
HETATM   17  H   UNL     1      42.626  48.768  30.696  1.00  0.00     0.211 HD
ENDBRANCH   4  16
BRANCH   5  18
HETATM   18  O   UNL     1      45.208  47.441  32.941  1.00  0.00    -0.378 OA
HETATM   19  H   UNL     1      44.721  46.601  33.054  1.00  0.00     0.211 HD
ENDBRANCH   5  18
TORSDOF 6
ENDMDL
