MODEL 1
REMARK VINA RESULT:    -4.418      0.000      0.000
REMARK INTER + INTRA:          -5.553
REMARK INTER:                  -5.306
REMARK INTRA:                  -0.247
REMARK UNBOUND:                -0.230
REMARK  6 active torsions:
REMARK  status: ('A' for Active; 'I' for Inactive)
REMARK    1  A    between atoms: O_2  and  C_7 
REMARK    2  A    between atoms: O_3  and  C_8 
REMARK    3  A    between atoms: O_4  and  C_10 
REMARK    4  A    between atoms: O_5  and  C_11 
REMARK    5  A    between atoms: O_6  and  C_12 
REMARK    6  A    between atoms: C_9  and  C_12 
ROOT
HETATM    1  O   UNL     1      45.477  39.529  42.471  1.00  0.00    -0.327 OA
HETATM    2  C   UNL     1      44.016  41.483  42.255  1.00  0.00     0.170 C 
HETATM    3  C   UNL     1      43.604  40.996  40.861  1.00  0.00     0.172 C 
HETATM    4  C   UNL     1      45.417  40.959  42.604  1.00  0.00     0.176 C 
HETATM    5  C   UNL     1      43.771  39.483  40.748  1.00  0.00     0.197 C 
HETATM    6  C   UNL     1      45.206  39.094  41.141  1.00  0.00     0.263 C 
ENDROOT
BRANCH   4   7
HETATM    7  C   UNL     1      45.798  41.299  44.048  1.00  0.00     0.170 C 
BRANCH   7   8
HETATM    8  O   UNL     1      46.236  42.657  44.111  1.00  0.00    -0.380 OA
HETATM    9  H   UNL     1      45.419  43.194  44.162  1.00  0.00     0.211 HD
ENDBRANCH   7   8
ENDBRANCH   4   7
BRANCH   2  10
HETATM   10  O   UNL     1      43.940  42.912  42.282  1.00  0.00    -0.380 OA
HETATM   11  H   UNL     1      43.118  43.178  42.734  1.00  0.00     0.211 HD
ENDBRANCH   2  10
BRANCH   6  12
HETATM   12  O   UNL     1      45.359  37.682  41.077  1.00  0.00    -0.359 OA
HETATM   13  H   UNL     1      45.203  37.439  40.146  1.00  0.00     0.213 HD
ENDBRANCH   6  12
BRANCH   3  14
HETATM   14  O   UNL     1      42.236  41.338  40.594  1.00  0.00    -0.380 OA
HETATM   15  H   UNL     1      42.262  42.076  39.951  1.00  0.00     0.211 HD
ENDBRANCH   3  14
BRANCH   5  16
HETATM   16  O   UNL     1      43.479  39.051  39.413  1.00  0.00    -0.378 OA
HETATM   17  H   UNL     1      42.515  38.877  39.407  1.00  0.00     0.211 HD
ENDBRANCH   5  16
TORSDOF 6
ENDMDL
MODEL 2
REMARK VINA RESULT:    -4.395      7.218      9.601
REMARK INTER + INTRA:          -5.525
REMARK INTER:                  -5.270
REMARK INTRA:                  -0.256
REMARK UNBOUND:                -0.230
REMARK  6 active torsions:
REMARK  status: ('A' for Active; 'I' for Inactive)
REMARK    1  A    between atoms: O_2  and  C_7 
REMARK    2  A    between atoms: O_3  and  C_8 
REMARK    3  A    between atoms: O_4  and  C_10 
REMARK    4  A    between atoms: O_5  and  C_11 
REMARK    5  A    between atoms: O_6  and  C_12 
REMARK    6  A    between atoms: C_9  and  C_12 
ROOT
HETATM    1  O   UNL     1      40.356  48.575  37.537  1.00  0.00    -0.327 OA
HETATM    2  C   UNL     1      40.772  46.348  38.469  1.00  0.00     0.170 C 
HETATM    3  C   UNL     1      42.048  46.885  39.128  1.00  0.00     0.172 C 
HETATM    4  C   UNL     1      40.436  47.175  37.219  1.00  0.00     0.176 C 
HETATM    5  C   UNL     1      41.942  48.390  39.362  1.00  0.00     0.197 C 
HETATM    6  C   UNL     1      41.586  49.091  38.039  1.00  0.00     0.263 C 
ENDROOT
BRANCH   4   7
HETATM    7  C   UNL     1      39.087  46.764  36.622  1.00  0.00     0.170 C 
BRANCH   7   8
HETATM    8  O   UNL     1      38.304  46.119  37.629  1.00  0.00    -0.380 OA
HETATM    9  H   UNL     1      37.764  46.828  38.034  1.00  0.00     0.211 HD
ENDBRANCH   7   8
ENDBRANCH   4   7
BRANCH   2  10
HETATM   10  O   UNL     1      40.956  44.959  38.177  1.00  0.00    -0.380 OA
HETATM   11  H   UNL     1      40.122  44.595  37.825  1.00  0.00     0.211 HD
ENDBRANCH   2  10
BRANCH   6  12
HETATM   12  O   UNL     1      41.445  50.489  38.256  1.00  0.00    -0.359 OA
HETATM   13  H   UNL     1      41.456  50.897  37.371  1.00  0.00     0.213 HD
ENDBRANCH   6  12
BRANCH   3  14
HETATM   14  O   UNL     1      42.278  46.230  40.384  1.00  0.00    -0.380 OA
HETATM   15  H   UNL     1      41.593  45.534  40.456  1.00  0.00     0.211 HD
ENDBRANCH   3  14
BRANCH   5  16
HETATM   16  O   UNL     1      43.176  48.897  39.885  1.00  0.00    -0.378 OA
HETATM   17  H   UNL     1      43.347  49.719  39.381  1.00  0.00     0.211 HD
ENDBRANCH   5  16
TORSDOF 6
ENDMDL
MODEL 3
REMARK VINA RESULT:    -4.329     25.456     27.516
REMARK INTER + INTRA:          -5.445
REMARK INTER:                  -5.190
REMARK INTRA:                  -0.255
REMARK UNBOUND:                -0.230
REMARK  6 active torsions:
REMARK  status: ('A' for Active; 'I' for Inactive)
REMARK    1  A    between atoms: O_2  and  C_7 
REMARK    2  A    between atoms: O_3  and  C_8 
REMARK    3  A    between atoms: O_4  and  C_10 
REMARK    4  A    between atoms: O_5  and  C_11 
REMARK    5  A    between atoms: O_6  and  C_12 
REMARK    6  A    between atoms: C_9  and  C_12 
ROOT
HETATM    1  O   UNL     1      38.886  66.935  50.483  1.00  0.00    -0.327 OA
HETATM    2  C   UNL     1      39.377  64.535  50.454  1.00  0.00     0.170 C 
HETATM    3  C   UNL     1      40.356  64.742  51.614  1.00  0.00     0.172 C 
HETATM    4  C   UNL     1      39.246  65.830  49.637  1.00  0.00     0.176 C 
HETATM    5  C   UNL     1      39.977  65.978  52.426  1.00  0.00     0.197 C 
HETATM    6  C   UNL     1      39.863  67.192  51.488  1.00  0.00     0.263 C 
ENDROOT
BRANCH   4   7
HETATM    7  C   UNL     1      38.162  65.706  48.562  1.00  0.00     0.170 C 
BRANCH   7   8
HETATM    8  O   UNL     1      37.289  64.626  48.897  1.00  0.00    -0.380 OA
HETATM    9  H   UNL     1      37.469  63.928  48.235  1.00  0.00     0.211 HD
ENDBRANCH   7   8
ENDBRANCH   4   7
BRANCH   2  10
HETATM   10  O   UNL     1      39.828  63.430  49.664  1.00  0.00    -0.380 OA
HETATM   11  H   UNL     1      40.743  63.600  49.373  1.00  0.00     0.211 HD
ENDBRANCH   2  10
BRANCH   6  12
HETATM   12  O   UNL     1      39.470  68.340  52.230  1.00  0.00    -0.359 OA
HETATM   13  H   UNL     1      38.760  68.040  52.827  1.00  0.00     0.213 HD
ENDBRANCH   6  12
BRANCH   3  14
HETATM   14  O   UNL     1      40.360  63.596  52.479  1.00  0.00    -0.380 OA
HETATM   15  H   UNL     1      41.212  63.622  52.960  1.00  0.00     0.211 HD
ENDBRANCH   3  14
BRANCH   5  16
HETATM   16  O   UNL     1      40.954  66.219  53.446  1.00  0.00    -0.378 OA
HETATM   17  H   UNL     1      41.458  67.000  53.137  1.00  0.00     0.211 HD
ENDBRANCH   5  16
TORSDOF 6
ENDMDL
MODEL 4
REMARK VINA RESULT:    -4.277      5.928      7.064
REMARK INTER + INTRA:          -5.383
REMARK INTER:                  -5.138
REMARK INTRA:                  -0.245
REMARK UNBOUND:                -0.230
REMARK  6 active torsions:
REMARK  status: ('A' for Active; 'I' for Inactive)
REMARK    1  A    between atoms: O_2  and  C_7 
REMARK    2  A    between atoms: O_3  and  C_8 
REMARK    3  A    between atoms: O_4  and  C_10 
REMARK    4  A    between atoms: O_5  and  C_11 
REMARK    5  A    between atoms: O_6  and  C_12 
REMARK    6  A    between atoms: C_9  and  C_12 
ROOT
HETATM    1  O   UNL     1      41.803  38.197  48.108  1.00  0.00    -0.327 OA
HETATM    2  C   UNL     1      44.170  38.771  48.360  1.00  0.00     0.170 C 
HETATM    3  C   UNL     1      44.203  39.197  46.888  1.00  0.00     0.172 C 
HETATM    4  C   UNL     1      43.074  37.719  48.581  1.00  0.00     0.176 C 
HETATM    5  C   UNL     1      42.811  39.610  46.415  1.00  0.00     0.197 C 
HETATM    6  C   UNL     1      41.812  38.478  46.711  1.00  0.00     0.263 C 
ENDROOT
BRANCH   4   7
HETATM    7  C   UNL     1      42.911  37.384  50.066  1.00  0.00     0.170 C 
BRANCH   7   8
HETATM    8  O   UNL     1      43.996  36.553  50.482  1.00  0.00    -0.380 OA
HETATM    9  H   UNL     1      43.584  35.793  50.940  1.00  0.00     0.211 HD
ENDBRANCH   7   8
ENDBRANCH   4   7
BRANCH   2  10
HETATM   10  O   UNL     1      45.469  38.299  48.730  1.00  0.00    -0.380 OA
HETATM   11  H   UNL     1      45.987  38.125  47.921  1.00  0.00     0.211 HD
ENDBRANCH   2  10
BRANCH   6  12
HETATM   12  O   UNL     1      40.506  38.870  46.311  1.00  0.00    -0.359 OA
HETATM   13  H   UNL     1      40.181  38.158  45.729  1.00  0.00     0.213 HD
ENDBRANCH   6  12
BRANCH   3  14
HETATM   14  O   UNL     1      45.107  40.296  46.703  1.00  0.00    -0.380 OA
HETATM   15  H   UNL     1      45.845  39.952  46.161  1.00  0.00     0.211 HD
ENDBRANCH   3  14
BRANCH   5  16
HETATM   16  O   UNL     1      42.834  39.909  45.013  1.00  0.00    -0.378 OA
HETATM   17  H   UNL     1      43.745  39.700  44.723  1.00  0.00     0.211 HD
ENDBRANCH   5  16
TORSDOF 6
ENDMDL
MODEL 5
REMARK VINA RESULT:    -4.275      7.160      8.649
REMARK INTER + INTRA:          -5.380
REMARK INTER:                  -5.150
REMARK INTRA:                  -0.230
REMARK UNBOUND:                -0.230
REMARK  6 active torsions:
REMARK  status: ('A' for Active; 'I' for Inactive)
REMARK    1  A    between atoms: O_2  and  C_7 
REMARK    2  A    between atoms: O_3  and  C_8 
REMARK    3  A    between atoms: O_4  and  C_10 
REMARK    4  A    between atoms: O_5  and  C_11 
REMARK    5  A    between atoms: O_6  and  C_12 
REMARK    6  A    between atoms: C_9  and  C_12 
ROOT
HETATM    1  O   UNL     1      42.205  37.039  47.413  1.00  0.00    -0.327 OA
HETATM    2  C   UNL     1      43.266  36.832  49.610  1.00  0.00     0.170 C 
HETATM    3  C   UNL     1      43.305  38.361  49.713  1.00  0.00     0.172 C 
HETATM    4  C   UNL     1      43.271  36.402  48.136  1.00  0.00     0.176 C 
HETATM    5  C   UNL     1      42.207  38.987  48.857  1.00  0.00     0.197 C 
HETATM    6  C   UNL     1      42.317  38.460  47.416  1.00  0.00     0.263 C 
ENDROOT
BRANCH   4   7
HETATM    7  C   UNL     1      43.080  34.889  47.994  1.00  0.00     0.170 C 
BRANCH   7   8
HETATM    8  O   UNL     1      44.354  34.246  48.054  1.00  0.00    -0.380 OA
HETATM    9  H   UNL     1      44.610  34.261  48.999  1.00  0.00     0.211 HD
ENDBRANCH   7   8
ENDBRANCH   4   7
BRANCH   2  10
HETATM   10  O   UNL     1      44.370  36.295  50.345  1.00  0.00    -0.380 OA
HETATM   11  H   UNL     1      44.785  37.009  50.863  1.00  0.00     0.211 HD
ENDBRANCH   2  10
BRANCH   6  12
HETATM   12  O   UNL     1      41.273  39.006  46.620  1.00  0.00    -0.359 OA
HETATM   13  H   UNL     1      40.643  38.277  46.470  1.00  0.00     0.213 HD
ENDBRANCH   6  12
BRANCH   3  14
HETATM   14  O   UNL     1      43.132  38.777  51.075  1.00  0.00    -0.380 OA
HETATM   15  H   UNL     1      42.235  38.486  51.337  1.00  0.00     0.211 HD
ENDBRANCH   3  14
BRANCH   5  16
HETATM   16  O   UNL     1      42.315  40.416  48.881  1.00  0.00    -0.378 OA
HETATM   17  H   UNL     1      41.396  40.742  48.789  1.00  0.00     0.211 HD
ENDBRANCH   5  16
TORSDOF 6
ENDMDL
MODEL 6
REMARK VINA RESULT:    -4.255      7.024      8.128
REMARK INTER + INTRA:          -5.356
REMARK INTER:                  -5.130
REMARK INTRA:                  -0.226
REMARK UNBOUND:                -0.230
REMARK  6 active torsions:
REMARK  status: ('A' for Active; 'I' for Inactive)
REMARK    1  A    between atoms: O_2  and  C_7 
REMARK    2  A    between atoms: O_3  and  C_8 
REMARK    3  A    between atoms: O_4  and  C_10 
REMARK    4  A    between atoms: O_5  and  C_11 
REMARK    5  A    between atoms: O_6  and  C_12 
REMARK    6  A    between atoms: C_9  and  C_12 
ROOT
HETATM    1  O   UNL     1      42.325  38.252  47.260  1.00  0.00    -0.327 OA
HETATM    2  C   UNL     1      43.250  38.456  49.518  1.00  0.00     0.170 C 
HETATM    3  C   UNL     1      43.060  36.947  49.711  1.00  0.00     0.172 C 
HETATM    4  C   UNL     1      42.240  38.988  48.491  1.00  0.00     0.176 C 
HETATM    5  C   UNL     1      43.071  36.226  48.365  1.00  0.00     0.197 C 
HETATM    6  C   UNL     1      42.030  36.867  47.431  1.00  0.00     0.263 C 
ENDROOT
BRANCH   4   7
HETATM    7  C   UNL     1      42.500  40.461  48.161  1.00  0.00     0.170 C 
BRANCH   7   8
HETATM    8  O   UNL     1      42.219  41.257  49.313  1.00  0.00    -0.380 OA
HETATM    9  H   UNL     1      42.760  40.876  50.034  1.00  0.00     0.211 HD
ENDBRANCH   7   8
ENDBRANCH   4   7
BRANCH   2  10
HETATM   10  O   UNL     1      43.132  39.099  50.791  1.00  0.00    -0.380 OA
HETATM   11  H   UNL     1      42.187  39.222  50.999  1.00  0.00     0.211 HD
ENDBRANCH   2  10
BRANCH   6  12
HETATM   12  O   UNL     1      42.062  36.229  46.161  1.00  0.00    -0.359 OA
HETATM   13  H   UNL     1      41.879  36.929  45.507  1.00  0.00     0.213 HD
ENDBRANCH   6  12
BRANCH   3  14
HETATM   14  O   UNL     1      44.103  36.411  50.539  1.00  0.00    -0.380 OA
HETATM   15  H   UNL     1      43.862  36.639  51.460  1.00  0.00     0.211 HD
ENDBRANCH   3  14
BRANCH   5  16
HETATM   16  O   UNL     1      42.793  34.832  48.549  1.00  0.00    -0.378 OA
HETATM   17  H   UNL     1      43.431  34.533  49.229  1.00  0.00     0.211 HD
ENDBRANCH   5  16
TORSDOF 6
ENDMDL
MODEL 7
REMARK VINA RESULT:    -4.223      7.439      8.137
REMARK INTER + INTRA:          -5.317
REMARK INTER:                  -5.093
REMARK INTRA:                  -0.224
REMARK UNBOUND:                -0.230
REMARK  6 active torsions:
REMARK  status: ('A' for Active; 'I' for Inactive)
REMARK    1  A    between atoms: O_2  and  C_7 
REMARK    2  A    between atoms: O_3  and  C_8 
REMARK    3  A    between atoms: O_4  and  C_10 
REMARK    4  A    between atoms: O_5  and  C_11 
REMARK    5  A    between atoms: O_6  and  C_12 
REMARK    6  A    between atoms: C_9  and  C_12 
ROOT
HETATM    1  O   UNL     1      42.292  46.931  37.262  1.00  0.00    -0.327 OA
HETATM    2  C   UNL     1      40.367  45.949  38.414  1.00  0.00     0.170 C 
HETATM    3  C   UNL     1      39.854  45.426  37.068  1.00  0.00     0.172 C 
HETATM    4  C   UNL     1      41.235  47.198  38.199  1.00  0.00     0.176 C 
HETATM    5  C   UNL     1      41.007  45.245  36.084  1.00  0.00     0.197 C 
HETATM    6  C   UNL     1      41.800  46.559  35.977  1.00  0.00     0.263 C 
ENDROOT
BRANCH   4   7
HETATM    7  C   UNL     1      41.888  47.657  39.506  1.00  0.00     0.170 C 
BRANCH   7   8
HETATM    8  O   UNL     1      42.175  46.516  40.315  1.00  0.00    -0.380 OA
HETATM    9  H   UNL     1      42.678  46.858  41.081  1.00  0.00     0.211 HD
ENDBRANCH   7   8
ENDBRANCH   4   7
BRANCH   2  10
HETATM   10  O   UNL     1      39.245  46.199  39.267  1.00  0.00    -0.380 OA
HETATM   11  H   UNL     1      39.104  47.161  39.334  1.00  0.00     0.211 HD
ENDBRANCH   2  10
BRANCH   6  12
HETATM   12  O   UNL     1      42.901  46.387  35.094  1.00  0.00    -0.359 OA
HETATM   13  H   UNL     1      43.701  46.464  35.648  1.00  0.00     0.213 HD
ENDBRANCH   6  12
BRANCH   3  14
HETATM   14  O   UNL     1      39.183  44.169  37.240  1.00  0.00    -0.380 OA
HETATM   15  H   UNL     1      38.358  44.366  37.729  1.00  0.00     0.211 HD
ENDBRANCH   3  14
BRANCH   5  16
HETATM   16  O   UNL     1      40.506  44.852  34.801  1.00  0.00    -0.378 OA
HETATM   17  H   UNL     1      40.418  45.686  34.295  1.00  0.00     0.211 HD
ENDBRANCH   5  16
TORSDOF 6
ENDMDL
MODEL 8
REMARK VINA RESULT:    -4.159      5.937      7.465
REMARK INTER + INTRA:          -5.240
REMARK INTER:                  -4.987
REMARK INTRA:                  -0.254
REMARK UNBOUND:                -0.230
REMARK  6 active torsions:
REMARK  status: ('A' for Active; 'I' for Inactive)
REMARK    1  A    between atoms: O_2  and  C_7 
REMARK    2  A    between atoms: O_3  and  C_8 
REMARK    3  A    between atoms: O_4  and  C_10 
REMARK    4  A    between atoms: O_5  and  C_11 
REMARK    5  A    between atoms: O_6  and  C_12 
REMARK    6  A    between atoms: C_9  and  C_12 
ROOT
HETATM    1  O   UNL     1      42.059  38.070  47.475  1.00  0.00    -0.327 OA
HETATM    2  C   UNL     1      44.277  39.083  47.242  1.00  0.00     0.170 C 
HETATM    3  C   UNL     1      44.654  38.526  48.619  1.00  0.00     0.172 C 
HETATM    4  C   UNL     1      42.757  39.285  47.152  1.00  0.00     0.176 C 
HETATM    5  C   UNL     1      43.821  37.289  48.947  1.00  0.00     0.197 C 
HETATM    6  C   UNL     1      42.327  37.624  48.802  1.00  0.00     0.263 C 
ENDROOT
BRANCH   4   7
HETATM    7  C   UNL     1      42.330  39.695  45.740  1.00  0.00     0.170 C 
BRANCH   7   8
HETATM    8  O   UNL     1      43.380  39.387  44.822  1.00  0.00    -0.380 OA
HETATM    9  H   UNL     1      44.081  38.964  45.359  1.00  0.00     0.211 HD
ENDBRANCH   7   8
ENDBRANCH   4   7
BRANCH   2  10
HETATM   10  O   UNL     1      45.007  40.294  47.021  1.00  0.00    -0.380 OA
HETATM   11  H   UNL     1      45.413  40.263  46.135  1.00  0.00     0.211 HD
ENDBRANCH   2  10
BRANCH   6  12
HETATM   12  O   UNL     1      41.544  36.467  49.066  1.00  0.00    -0.359 OA
HETATM   13  H   UNL     1      42.074  35.922  49.678  1.00  0.00     0.213 HD
ENDBRANCH   6  12
BRANCH   3  14
HETATM   14  O   UNL     1      46.046  38.177  48.656  1.00  0.00    -0.380 OA
HETATM   15  H   UNL     1      46.088  37.269  49.018  1.00  0.00     0.211 HD
ENDBRANCH   3  14
BRANCH   5  16
HETATM   16  O   UNL     1      44.110  36.836  50.276  1.00  0.00    -0.378 OA
HETATM   17  H   UNL     1      44.691  37.526  50.659  1.00  0.00     0.211 HD
ENDBRANCH   5  16
TORSDOF 6
ENDMDL
MODEL 9
REMARK VINA RESULT:    -4.067      6.942      8.419
REMARK INTER + INTRA:          -5.130
REMARK INTER:                  -4.885
REMARK INTRA:                  -0.245
REMARK UNBOUND:                -0.230
REMARK  6 active torsions:
REMARK  status: ('A' for Active; 'I' for Inactive)
REMARK    1  A    between atoms: O_2  and  C_7 
REMARK    2  A    between atoms: O_3  and  C_8 
REMARK    3  A    between atoms: O_4  and  C_10 
REMARK    4  A    between atoms: O_5  and  C_11 
REMARK    5  A    between atoms: O_6  and  C_12 
REMARK    6  A    between atoms: C_9  and  C_12 
ROOT
HETATM    1  O   UNL     1      42.265  39.139  48.484  1.00  0.00    -0.327 OA
HETATM    2  C   UNL     1      42.101  36.997  47.308  1.00  0.00     0.170 C 
HETATM    3  C   UNL     1      43.079  36.390  48.320  1.00  0.00     0.172 C 
HETATM    4  C   UNL     1      42.334  38.511  47.193  1.00  0.00     0.176 C 
HETATM    5  C   UNL     1      43.028  37.150  49.643  1.00  0.00     0.197 C 
HETATM    6  C   UNL     1      43.257  38.649  49.382  1.00  0.00     0.263 C 
ENDROOT
BRANCH   4   7
HETATM    7  C   UNL     1      41.276  39.174  46.306  1.00  0.00     0.170 C 
BRANCH   7   8
HETATM    8  O   UNL     1      40.067  38.416  46.369  1.00  0.00    -0.380 OA
HETATM    9  H   UNL     1      39.475  38.915  46.968  1.00  0.00     0.211 HD
ENDBRANCH   7   8
ENDBRANCH   4   7
BRANCH   2  10
HETATM   10  O   UNL     1      42.256  36.320  46.057  1.00  0.00    -0.380 OA
HETATM   11  H   UNL     1      43.085  36.615  45.636  1.00  0.00     0.211 HD
ENDBRANCH   2  10
BRANCH   6  12
HETATM   12  O   UNL     1      43.170  39.370  50.604  1.00  0.00    -0.359 OA
HETATM   13  H   UNL     1      43.466  38.753  51.299  1.00  0.00     0.213 HD
ENDBRANCH   6  12
BRANCH   3  14
HETATM   14  O   UNL     1      42.761  35.011  48.559  1.00  0.00    -0.380 OA
HETATM   15  H   UNL     1      43.343  34.721  49.291  1.00  0.00     0.211 HD
ENDBRANCH   3  14
BRANCH   5  16
HETATM   16  O   UNL     1      44.015  36.638  50.546  1.00  0.00    -0.378 OA
HETATM   17  H   UNL     1      43.937  37.193  51.349  1.00  0.00     0.211 HD
ENDBRANCH   5  16
TORSDOF 6
ENDMDL
MODEL 10
REMARK VINA RESULT:    -4.040      6.235      7.497
REMARK INTER + INTRA:          -5.097
REMARK INTER:                  -4.851
REMARK INTRA:                  -0.246
REMARK UNBOUND:                -0.230
REMARK  6 active torsions:
REMARK  status: ('A' for Active; 'I' for Inactive)
REMARK    1  A    between atoms: O_2  and  C_7 
REMARK    2  A    between atoms: O_3  and  C_8 
REMARK    3  A    between atoms: O_4  and  C_10 
REMARK    4  A    between atoms: O_5  and  C_11 
REMARK    5  A    between atoms: O_6  and  C_12 
REMARK    6  A    between atoms: C_9  and  C_12 
ROOT
HETATM    1  O   UNL     1      43.340  37.525  46.734  1.00  0.00    -0.327 OA
HETATM    2  C   UNL     1      42.666  39.524  47.979  1.00  0.00     0.170 C 
HETATM    3  C   UNL     1      42.851  38.747  49.287  1.00  0.00     0.172 C 
HETATM    4  C   UNL     1      42.343  38.555  46.831  1.00  0.00     0.176 C 
HETATM    5  C   UNL     1      43.854  37.611  49.103  1.00  0.00     0.197 C 
HETATM    6  C   UNL     1      43.422  36.732  47.916  1.00  0.00     0.263 C 
ENDROOT
BRANCH   4   7
HETATM    7  C   UNL     1      42.302  39.279  45.482  1.00  0.00     0.170 C 
BRANCH   7   8
HETATM    8  O   UNL     1      41.037  39.927  45.334  1.00  0.00    -0.380 OA
HETATM    9  H   UNL     1      41.167  40.835  45.675  1.00  0.00     0.211 HD
ENDBRANCH   7   8
ENDBRANCH   4   7
BRANCH   2  10
HETATM   10  O   UNL     1      41.647  40.510  48.170  1.00  0.00    -0.380 OA
HETATM   11  H   UNL     1      41.351  40.835  47.300  1.00  0.00     0.211 HD
ENDBRANCH   2  10
BRANCH   6  12
HETATM   12  O   UNL     1      44.372  35.695  47.712  1.00  0.00    -0.359 OA
HETATM   13  H   UNL     1      43.928  34.870  47.981  1.00  0.00     0.213 HD
ENDBRANCH   6  12
BRANCH   3  14
HETATM   14  O   UNL     1      43.315  39.619  50.327  1.00  0.00    -0.380 OA
HETATM   15  H   UNL     1      43.682  39.038  51.025  1.00  0.00     0.211 HD
ENDBRANCH   3  14
BRANCH   5  16
HETATM   16  O   UNL     1      43.944  36.831  50.302  1.00  0.00    -0.378 OA
HETATM   17  H   UNL     1      43.479  37.358  50.984  1.00  0.00     0.211 HD
ENDBRANCH   5  16
TORSDOF 6
ENDMDL
