MODEL 1
REMARK VINA RESULT:    -4.492      0.000      0.000
REMARK INTER + INTRA:          -5.639
REMARK INTER:                  -5.386
REMARK INTRA:                  -0.253
REMARK UNBOUND:                -0.228
REMARK  6 active torsions:
REMARK  status: ('A' for Active; 'I' for Inactive)
REMARK    1  A    between atoms: O_2  and  C_7 
REMARK    2  A    between atoms: O_3  and  C_8 
REMARK    3  A    between atoms: O_4  and  C_10 
REMARK    4  A    between atoms: O_5  and  C_11 
REMARK    5  A    between atoms: O_6  and  C_12 
REMARK    6  A    between atoms: C_9  and  C_12 
ROOT
HETATM    1  O   UNL     1      40.201  48.746  37.731  1.00  0.00    -0.327 OA
HETATM    2  C   UNL     1      40.781  46.471  38.428  1.00  0.00     0.170 C 
HETATM    3  C   UNL     1      42.054  47.018  39.082  1.00  0.00     0.172 C 
HETATM    4  C   UNL     1      40.343  47.390  37.278  1.00  0.00     0.176 C 
HETATM    5  C   UNL     1      41.877  48.485  39.464  1.00  0.00     0.197 C 
HETATM    6  C   UNL     1      41.422  49.285  38.231  1.00  0.00     0.263 C 
ENDROOT
BRANCH   4   7
HETATM    7  C   UNL     1      38.992  46.958  36.700  1.00  0.00     0.170 C 
BRANCH   7   8
HETATM    8  O   UNL     1      38.264  46.235  37.695  1.00  0.00    -0.380 OA
HETATM    9  H   UNL     1      37.321  46.430  37.522  1.00  0.00     0.211 HD
ENDBRANCH   7   8
ENDBRANCH   4   7
BRANCH   2  10
HETATM   10  O   UNL     1      41.027  45.128  37.997  1.00  0.00    -0.380 OA
HETATM   11  H   UNL     1      41.507  45.150  37.148  1.00  0.00     0.211 HD
ENDBRANCH   2  10
BRANCH   6  12
HETATM   12  O   UNL     1      41.215  50.645  38.587  1.00  0.00    -0.359 OA
HETATM   13  H   UNL     1      41.415  50.704  39.539  1.00  0.00     0.213 HD
ENDBRANCH   6  12
BRANCH   3  14
HETATM   14  O   UNL     1      42.378  46.263  40.259  1.00  0.00    -0.380 OA
HETATM   15  H   UNL     1      42.102  46.814  41.020  1.00  0.00     0.211 HD
ENDBRANCH   3  14
BRANCH   5  16
HETATM   16  O   UNL     1      43.104  49.013  39.983  1.00  0.00    -0.378 OA
HETATM   17  H   UNL     1      43.552  48.250  40.403  1.00  0.00     0.211 HD
ENDBRANCH   5  16
TORSDOF 6
ENDMDL
MODEL 2
REMARK VINA RESULT:    -4.467      7.362      9.719
REMARK INTER + INTRA:          -5.609
REMARK INTER:                  -5.364
REMARK INTRA:                  -0.245
REMARK UNBOUND:                -0.228
REMARK  6 active torsions:
REMARK  status: ('A' for Active; 'I' for Inactive)
REMARK    1  A    between atoms: O_2  and  C_7 
REMARK    2  A    between atoms: O_3  and  C_8 
REMARK    3  A    between atoms: O_4  and  C_10 
REMARK    4  A    between atoms: O_5  and  C_11 
REMARK    5  A    between atoms: O_6  and  C_12 
REMARK    6  A    between atoms: C_9  and  C_12 
ROOT
HETATM    1  O   UNL     1      45.606  39.586  42.445  1.00  0.00    -0.327 OA
HETATM    2  C   UNL     1      44.061  41.478  42.263  1.00  0.00     0.170 C 
HETATM    3  C   UNL     1      43.678  41.003  40.857  1.00  0.00     0.172 C 
HETATM    4  C   UNL     1      45.482  41.008  42.609  1.00  0.00     0.176 C 
HETATM    5  C   UNL     1      43.912  39.501  40.711  1.00  0.00     0.197 C 
HETATM    6  C   UNL     1      45.362  39.168  41.105  1.00  0.00     0.263 C 
ENDROOT
BRANCH   4   7
HETATM    7  C   UNL     1      45.840  41.334  44.062  1.00  0.00     0.170 C 
BRANCH   7   8
HETATM    8  O   UNL     1      46.260  42.696  44.149  1.00  0.00    -0.380 OA
HETATM    9  H   UNL     1      46.176  43.054  43.242  1.00  0.00     0.211 HD
ENDBRANCH   7   8
ENDBRANCH   4   7
BRANCH   2  10
HETATM   10  O   UNL     1      43.922  42.901  42.320  1.00  0.00    -0.380 OA
HETATM   11  H   UNL     1      43.485  43.211  41.505  1.00  0.00     0.211 HD
ENDBRANCH   2  10
BRANCH   6  12
HETATM   12  O   UNL     1      45.578  37.766  41.012  1.00  0.00    -0.359 OA
HETATM   13  H   UNL     1      46.397  37.589  41.511  1.00  0.00     0.213 HD
ENDBRANCH   6  12
BRANCH   3  14
HETATM   14  O   UNL     1      42.298  41.290  40.588  1.00  0.00    -0.380 OA
HETATM   15  H   UNL     1      42.050  40.739  39.818  1.00  0.00     0.211 HD
ENDBRANCH   3  14
BRANCH   5  16
HETATM   16  O   UNL     1      43.647  39.087  39.366  1.00  0.00    -0.378 OA
HETATM   17  H   UNL     1      42.711  39.326  39.206  1.00  0.00     0.211 HD
ENDBRANCH   5  16
TORSDOF 6
ENDMDL
MODEL 3
REMARK VINA RESULT:    -4.304     12.316     14.232
REMARK INTER + INTRA:          -5.412
REMARK INTER:                  -5.166
REMARK INTRA:                  -0.246
REMARK UNBOUND:                -0.228
REMARK  6 active torsions:
REMARK  status: ('A' for Active; 'I' for Inactive)
REMARK    1  A    between atoms: O_2  and  C_7 
REMARK    2  A    between atoms: O_3  and  C_8 
REMARK    3  A    between atoms: O_4  and  C_10 
REMARK    4  A    between atoms: O_5  and  C_11 
REMARK    5  A    between atoms: O_6  and  C_12 
REMARK    6  A    between atoms: C_9  and  C_12 
ROOT
HETATM    1  O   UNL     1      42.274  36.931  48.186  1.00  0.00    -0.327 OA
HETATM    2  C   UNL     1      44.307  38.214  48.653  1.00  0.00     0.170 C 
HETATM    3  C   UNL     1      43.798  39.321  47.723  1.00  0.00     0.172 C 
HETATM    4  C   UNL     1      43.709  36.861  48.241  1.00  0.00     0.176 C 
HETATM    5  C   UNL     1      42.274  39.292  47.634  1.00  0.00     0.197 C 
HETATM    6  C   UNL     1      41.810  37.882  47.231  1.00  0.00     0.263 C 
ENDROOT
BRANCH   4   7
HETATM    7  C   UNL     1      44.075  35.760  49.240  1.00  0.00     0.170 C 
BRANCH   7   8
HETATM    8  O   UNL     1      44.278  36.342  50.528  1.00  0.00    -0.380 OA
HETATM    9  H   UNL     1      44.236  37.310  50.388  1.00  0.00     0.211 HD
ENDBRANCH   7   8
ENDBRANCH   4   7
BRANCH   2  10
HETATM   10  O   UNL     1      45.738  38.215  48.627  1.00  0.00    -0.380 OA
HETATM   11  H   UNL     1      46.042  37.693  47.860  1.00  0.00     0.211 HD
ENDBRANCH   2  10
BRANCH   6  12
HETATM   12  O   UNL     1      40.390  37.835  47.186  1.00  0.00    -0.359 OA
HETATM   13  H   UNL     1      40.103  38.733  46.936  1.00  0.00     0.213 HD
ENDBRANCH   6  12
BRANCH   3  14
HETATM   14  O   UNL     1      44.216  40.609  48.198  1.00  0.00    -0.380 OA
HETATM   15  H   UNL     1      43.401  41.144  48.285  1.00  0.00     0.211 HD
ENDBRANCH   3  14
BRANCH   5  16
HETATM   16  O   UNL     1      41.816  40.264  46.686  1.00  0.00    -0.378 OA
HETATM   17  H   UNL     1      42.593  40.832  46.507  1.00  0.00     0.211 HD
ENDBRANCH   5  16
TORSDOF 6
ENDMDL
MODEL 4
REMARK VINA RESULT:    -4.293     12.833     14.698
REMARK INTER + INTRA:          -5.399
REMARK INTER:                  -5.154
REMARK INTRA:                  -0.245
REMARK UNBOUND:                -0.228
REMARK  6 active torsions:
REMARK  status: ('A' for Active; 'I' for Inactive)
REMARK    1  A    between atoms: O_2  and  C_7 
REMARK    2  A    between atoms: O_3  and  C_8 
REMARK    3  A    between atoms: O_4  and  C_10 
REMARK    4  A    between atoms: O_5  and  C_11 
REMARK    5  A    between atoms: O_6  and  C_12 
REMARK    6  A    between atoms: C_9  and  C_12 
ROOT
HETATM    1  O   UNL     1      42.968  37.876  46.833  1.00  0.00    -0.327 OA
HETATM    2  C   UNL     1      43.059  38.153  49.265  1.00  0.00     0.170 C 
HETATM    3  C   UNL     1      43.385  36.662  49.402  1.00  0.00     0.172 C 
HETATM    4  C   UNL     1      42.268  38.403  47.973  1.00  0.00     0.176 C 
HETATM    5  C   UNL     1      44.046  36.134  48.132  1.00  0.00     0.197 C 
HETATM    6  C   UNL     1      43.162  36.466  46.918  1.00  0.00     0.263 C 
ENDROOT
BRANCH   4   7
HETATM    7  C   UNL     1      42.058  39.900  47.726  1.00  0.00     0.170 C 
BRANCH   7   8
HETATM    8  O   UNL     1      42.903  40.645  48.605  1.00  0.00    -0.380 OA
HETATM    9  H   UNL     1      43.733  40.130  48.669  1.00  0.00     0.211 HD
ENDBRANCH   7   8
ENDBRANCH   4   7
BRANCH   2  10
HETATM   10  O   UNL     1      42.352  38.578  50.434  1.00  0.00    -0.380 OA
HETATM   11  H   UNL     1      41.405  38.668  50.218  1.00  0.00     0.211 HD
ENDBRANCH   2  10
BRANCH   6  12
HETATM   12  O   UNL     1      43.790  36.015  45.725  1.00  0.00    -0.359 OA
HETATM   13  H   UNL     1      44.735  36.237  45.822  1.00  0.00     0.213 HD
ENDBRANCH   6  12
BRANCH   3  14
HETATM   14  O   UNL     1      44.263  36.440  50.515  1.00  0.00    -0.380 OA
HETATM   15  H   UNL     1      44.957  37.128  50.455  1.00  0.00     0.211 HD
ENDBRANCH   3  14
BRANCH   5  16
HETATM   16  O   UNL     1      44.255  34.720  48.233  1.00  0.00    -0.378 OA
HETATM   17  H   UNL     1      45.194  34.584  47.989  1.00  0.00     0.211 HD
ENDBRANCH   5  16
TORSDOF 6
ENDMDL
MODEL 5
REMARK VINA RESULT:    -4.243     12.329     14.081
REMARK INTER + INTRA:          -5.339
REMARK INTER:                  -5.083
REMARK INTRA:                  -0.256
REMARK UNBOUND:                -0.228
REMARK  6 active torsions:
REMARK  status: ('A' for Active; 'I' for Inactive)
REMARK    1  A    between atoms: O_2  and  C_7 
REMARK    2  A    between atoms: O_3  and  C_8 
REMARK    3  A    between atoms: O_4  and  C_10 
REMARK    4  A    between atoms: O_5  and  C_11 
REMARK    5  A    between atoms: O_6  and  C_12 
REMARK    6  A    between atoms: C_9  and  C_12 
ROOT
HETATM    1  O   UNL     1      44.260  38.091  47.077  1.00  0.00    -0.327 OA
HETATM    2  C   UNL     1      41.920  38.179  47.796  1.00  0.00     0.170 C 
HETATM    3  C   UNL     1      42.282  37.312  49.008  1.00  0.00     0.172 C 
HETATM    4  C   UNL     1      42.901  37.910  46.645  1.00  0.00     0.176 C 
HETATM    5  C   UNL     1      43.756  37.476  49.368  1.00  0.00     0.197 C 
HETATM    6  C   UNL     1      44.621  37.197  48.127  1.00  0.00     0.263 C 
ENDROOT
BRANCH   4   7
HETATM    7  C   UNL     1      42.664  38.868  45.473  1.00  0.00     0.170 C 
BRANCH   7   8
HETATM    8  O   UNL     1      41.938  40.007  45.937  1.00  0.00    -0.380 OA
HETATM    9  H   UNL     1      40.993  39.778  45.826  1.00  0.00     0.211 HD
ENDBRANCH   7   8
ENDBRANCH   4   7
BRANCH   2  10
HETATM   10  O   UNL     1      40.561  37.917  47.434  1.00  0.00    -0.380 OA
HETATM   11  H   UNL     1      40.542  37.499  46.553  1.00  0.00     0.211 HD
ENDBRANCH   2  10
BRANCH   6  12
HETATM   12  O   UNL     1      45.994  37.387  48.443  1.00  0.00    -0.359 OA
HETATM   13  H   UNL     1      46.025  37.557  49.403  1.00  0.00     0.213 HD
ENDBRANCH   6  12
BRANCH   3  14
HETATM   14  O   UNL     1      41.479  37.674  50.141  1.00  0.00    -0.380 OA
HETATM   15  H   UNL     1      41.502  36.905  50.747  1.00  0.00     0.211 HD
ENDBRANCH   3  14
BRANCH   5  16
HETATM   16  O   UNL     1      44.106  36.588  50.437  1.00  0.00    -0.378 OA
HETATM   17  H   UNL     1      43.300  36.056  50.600  1.00  0.00     0.211 HD
ENDBRANCH   5  16
TORSDOF 6
ENDMDL
MODEL 6
REMARK VINA RESULT:    -4.206     12.688     14.180
REMARK INTER + INTRA:          -5.295
REMARK INTER:                  -5.048
REMARK INTRA:                  -0.247
REMARK UNBOUND:                -0.228
REMARK  6 active torsions:
REMARK  status: ('A' for Active; 'I' for Inactive)
REMARK    1  A    between atoms: O_2  and  C_7 
REMARK    2  A    between atoms: O_3  and  C_8 
REMARK    3  A    between atoms: O_4  and  C_10 
REMARK    4  A    between atoms: O_5  and  C_11 
REMARK    5  A    between atoms: O_6  and  C_12 
REMARK    6  A    between atoms: C_9  and  C_12 
ROOT
HETATM    1  O   UNL     1      42.518  36.794  48.785  1.00  0.00    -0.327 OA
HETATM    2  C   UNL     1      42.952  37.413  46.456  1.00  0.00     0.170 C 
HETATM    3  C   UNL     1      44.385  37.793  46.845  1.00  0.00     0.172 C 
HETATM    4  C   UNL     1      42.022  37.552  47.670  1.00  0.00     0.176 C 
HETATM    5  C   UNL     1      44.829  37.024  48.087  1.00  0.00     0.197 C 
HETATM    6  C   UNL     1      43.804  37.235  49.214  1.00  0.00     0.263 C 
ENDROOT
BRANCH   4   7
HETATM    7  C   UNL     1      40.614  37.035  47.357  1.00  0.00     0.170 C 
BRANCH   7   8
HETATM    8  O   UNL     1      39.903  38.027  46.616  1.00  0.00    -0.380 OA
HETATM    9  H   UNL     1      40.031  38.864  47.108  1.00  0.00     0.211 HD
ENDBRANCH   7   8
ENDBRANCH   4   7
BRANCH   2  10
HETATM   10  O   UNL     1      42.545  38.229  45.353  1.00  0.00    -0.380 OA
HETATM   11  H   UNL     1      42.024  37.687  44.732  1.00  0.00     0.211 HD
ENDBRANCH   2  10
BRANCH   6  12
HETATM   12  O   UNL     1      44.189  36.489  50.362  1.00  0.00    -0.359 OA
HETATM   13  H   UNL     1      45.089  36.789  50.585  1.00  0.00     0.213 HD
ENDBRANCH   6  12
BRANCH   3  14
HETATM   14  O   UNL     1      45.290  37.509  45.768  1.00  0.00    -0.380 OA
HETATM   15  H   UNL     1      45.581  38.377  45.421  1.00  0.00     0.211 HD
ENDBRANCH   3  14
BRANCH   5  16
HETATM   16  O   UNL     1      46.131  37.460  48.500  1.00  0.00    -0.378 OA
HETATM   17  H   UNL     1      45.968  38.223  49.091  1.00  0.00     0.211 HD
ENDBRANCH   5  16
TORSDOF 6
ENDMDL
MODEL 7
REMARK VINA RESULT:    -4.188     11.904     13.545
REMARK INTER + INTRA:          -5.273
REMARK INTER:                  -5.031
REMARK INTRA:                  -0.242
REMARK UNBOUND:                -0.228
REMARK  6 active torsions:
REMARK  status: ('A' for Active; 'I' for Inactive)
REMARK    1  A    between atoms: O_2  and  C_7 
REMARK    2  A    between atoms: O_3  and  C_8 
REMARK    3  A    between atoms: O_4  and  C_10 
REMARK    4  A    between atoms: O_5  and  C_11 
REMARK    5  A    between atoms: O_6  and  C_12 
REMARK    6  A    between atoms: C_9  and  C_12 
ROOT
HETATM    1  O   UNL     1      43.322  39.631  46.747  1.00  0.00    -0.327 OA
HETATM    2  C   UNL     1      45.087  38.219  47.690  1.00  0.00     0.170 C 
HETATM    3  C   UNL     1      44.287  38.126  48.994  1.00  0.00     0.172 C 
HETATM    4  C   UNL     1      44.740  39.520  46.950  1.00  0.00     0.176 C 
HETATM    5  C   UNL     1      42.798  38.339  48.731  1.00  0.00     0.197 C 
HETATM    6  C   UNL     1      42.596  39.662  47.973  1.00  0.00     0.263 C 
ENDROOT
BRANCH   4   7
HETATM    7  C   UNL     1      45.405  39.574  45.572  1.00  0.00     0.170 C 
BRANCH   7   8
HETATM    8  O   UNL     1      45.567  38.245  45.076  1.00  0.00    -0.380 OA
HETATM    9  H   UNL     1      45.226  38.264  44.158  1.00  0.00     0.211 HD
ENDBRANCH   7   8
ENDBRANCH   4   7
BRANCH   2  10
HETATM   10  O   UNL     1      46.480  38.115  47.997  1.00  0.00    -0.380 OA
HETATM   11  H   UNL     1      46.744  37.176  47.966  1.00  0.00     0.211 HD
ENDBRANCH   2  10
BRANCH   6  12
HETATM   12  O   UNL     1      41.215  39.849  47.687  1.00  0.00    -0.359 OA
HETATM   13  H   UNL     1      40.833  40.262  48.484  1.00  0.00     0.213 HD
ENDBRANCH   6  12
BRANCH   3  14
HETATM   14  O   UNL     1      44.476  36.843  49.608  1.00  0.00    -0.380 OA
HETATM   15  H   UNL     1      45.352  36.876  50.044  1.00  0.00     0.211 HD
ENDBRANCH   3  14
BRANCH   5  16
HETATM   16  O   UNL     1      42.074  38.349  49.967  1.00  0.00    -0.378 OA
HETATM   17  H   UNL     1      41.259  37.836  49.789  1.00  0.00     0.211 HD
ENDBRANCH   5  16
TORSDOF 6
ENDMDL
MODEL 8
REMARK VINA RESULT:    -4.112     11.816     13.638
REMARK INTER + INTRA:          -5.181
REMARK INTER:                  -4.929
REMARK INTRA:                  -0.252
REMARK UNBOUND:                -0.228
REMARK  6 active torsions:
REMARK  status: ('A' for Active; 'I' for Inactive)
REMARK    1  A    between atoms: O_2  and  C_7 
REMARK    2  A    between atoms: O_3  and  C_8 
REMARK    3  A    between atoms: O_4  and  C_10 
REMARK    4  A    between atoms: O_5  and  C_11 
REMARK    5  A    between atoms: O_6  and  C_12 
REMARK    6  A    between atoms: C_9  and  C_12 
ROOT
HETATM    1  O   UNL     1      41.927  38.234  47.547  1.00  0.00    -0.327 OA
HETATM    2  C   UNL     1      44.201  39.033  47.111  1.00  0.00     0.170 C 
HETATM    3  C   UNL     1      44.599  38.614  48.530  1.00  0.00     0.172 C 
HETATM    4  C   UNL     1      42.698  39.343  47.054  1.00  0.00     0.176 C 
HETATM    5  C   UNL     1      43.693  37.494  49.036  1.00  0.00     0.197 C 
HETATM    6  C   UNL     1      42.222  37.928  48.908  1.00  0.00     0.263 C 
ENDROOT
BRANCH   4   7
HETATM    7  C   UNL     1      42.237  39.618  45.620  1.00  0.00     0.170 C 
BRANCH   7   8
HETATM    8  O   UNL     1      43.122  38.964  44.708  1.00  0.00    -0.380 OA
HETATM    9  H   UNL     1      43.935  39.509  44.697  1.00  0.00     0.211 HD
ENDBRANCH   7   8
ENDBRANCH   4   7
BRANCH   2  10
HETATM   10  O   UNL     1      45.008  40.148  46.718  1.00  0.00    -0.380 OA
HETATM   11  H   UNL     1      44.429  40.911  46.537  1.00  0.00     0.211 HD
ENDBRANCH   2  10
BRANCH   6  12
HETATM   12  O   UNL     1      41.369  36.875  49.338  1.00  0.00    -0.359 OA
HETATM   13  H   UNL     1      40.553  37.306  49.655  1.00  0.00     0.213 HD
ENDBRANCH   6  12
BRANCH   3  14
HETATM   14  O   UNL     1      45.961  38.163  48.557  1.00  0.00    -0.380 OA
HETATM   15  H   UNL     1      45.923  37.186  48.601  1.00  0.00     0.211 HD
ENDBRANCH   3  14
BRANCH   5  16
HETATM   16  O   UNL     1      44.008  37.180  50.398  1.00  0.00    -0.378 OA
HETATM   17  H   UNL     1      44.713  36.502  50.346  1.00  0.00     0.211 HD
ENDBRANCH   5  16
TORSDOF 6
ENDMDL
MODEL 9
REMARK VINA RESULT:    -4.086     12.608     14.179
REMARK INTER + INTRA:          -5.150
REMARK INTER:                  -4.900
REMARK INTRA:                  -0.251
REMARK UNBOUND:                -0.228
REMARK  6 active torsions:
REMARK  status: ('A' for Active; 'I' for Inactive)
REMARK    1  A    between atoms: O_2  and  C_7 
REMARK    2  A    between atoms: O_3  and  C_8 
REMARK    3  A    between atoms: O_4  and  C_10 
REMARK    4  A    between atoms: O_5  and  C_11 
REMARK    5  A    between atoms: O_6  and  C_12 
REMARK    6  A    between atoms: C_9  and  C_12 
ROOT
HETATM    1  O   UNL     1      42.301  39.162  48.542  1.00  0.00    -0.327 OA
HETATM    2  C   UNL     1      42.184  37.069  47.275  1.00  0.00     0.170 C 
HETATM    3  C   UNL     1      43.138  36.426  48.288  1.00  0.00     0.172 C 
HETATM    4  C   UNL     1      42.410  38.588  47.228  1.00  0.00     0.176 C 
HETATM    5  C   UNL     1      43.045  37.132  49.639  1.00  0.00     0.197 C 
HETATM    6  C   UNL     1      43.272  38.641  49.446  1.00  0.00     0.263 C 
ENDROOT
BRANCH   4   7
HETATM    7  C   UNL     1      41.372  39.281  46.340  1.00  0.00     0.170 C 
BRANCH   7   8
HETATM    8  O   UNL     1      40.185  38.487  46.296  1.00  0.00    -0.380 OA
HETATM    9  H   UNL     1      39.635  38.877  45.587  1.00  0.00     0.211 HD
ENDBRANCH   7   8
ENDBRANCH   4   7
BRANCH   2  10
HETATM   10  O   UNL     1      42.378  36.445  46.002  1.00  0.00    -0.380 OA
HETATM   11  H   UNL     1      42.666  35.523  46.141  1.00  0.00     0.211 HD
ENDBRANCH   2  10
BRANCH   6  12
HETATM   12  O   UNL     1      43.146  39.311  50.694  1.00  0.00    -0.359 OA
HETATM   13  H   UNL     1      43.234  40.262  50.494  1.00  0.00     0.213 HD
ENDBRANCH   6  12
BRANCH   3  14
HETATM   14  O   UNL     1      42.823  35.037  48.462  1.00  0.00    -0.380 OA
HETATM   15  H   UNL     1      42.125  34.833  47.808  1.00  0.00     0.211 HD
ENDBRANCH   3  14
BRANCH   5  16
HETATM   16  O   UNL     1      44.010  36.588  50.548  1.00  0.00    -0.378 OA
HETATM   17  H   UNL     1      44.171  35.675  50.233  1.00  0.00     0.211 HD
ENDBRANCH   5  16
TORSDOF 6
ENDMDL
MODEL 10
REMARK VINA RESULT:    -4.072     12.927     14.616
REMARK INTER + INTRA:          -5.133
REMARK INTER:                  -4.905
REMARK INTRA:                  -0.228
REMARK UNBOUND:                -0.228
REMARK  6 active torsions:
REMARK  status: ('A' for Active; 'I' for Inactive)
REMARK    1  A    between atoms: O_2  and  C_7 
REMARK    2  A    between atoms: O_3  and  C_8 
REMARK    3  A    between atoms: O_4  and  C_10 
REMARK    4  A    between atoms: O_5  and  C_11 
REMARK    5  A    between atoms: O_6  and  C_12 
REMARK    6  A    between atoms: C_9  and  C_12 
ROOT
HETATM    1  O   UNL     1      41.994  37.016  47.374  1.00  0.00    -0.327 OA
HETATM    2  C   UNL     1      43.077  37.070  49.570  1.00  0.00     0.170 C 
HETATM    3  C   UNL     1      43.225  38.590  49.437  1.00  0.00     0.172 C 
HETATM    4  C   UNL     1      43.026  36.421  48.178  1.00  0.00     0.176 C 
HETATM    5  C   UNL     1      42.158  39.156  48.503  1.00  0.00     0.197 C 
HETATM    6  C   UNL     1      42.205  38.409  47.159  1.00  0.00     0.263 C 
ENDROOT
BRANCH   4   7
HETATM    7  C   UNL     1      42.726  34.922  48.270  1.00  0.00     0.170 C 
BRANCH   7   8
HETATM    8  O   UNL     1      43.955  34.204  48.400  1.00  0.00    -0.380 OA
HETATM    9  H   UNL     1      44.366  34.536  49.224  1.00  0.00     0.211 HD
ENDBRANCH   7   8
ENDBRANCH   4   7
BRANCH   2  10
HETATM   10  O   UNL     1      44.155  36.572  50.370  1.00  0.00    -0.380 OA
HETATM   11  H   UNL     1      44.999  36.887  49.997  1.00  0.00     0.211 HD
ENDBRANCH   2  10
BRANCH   6  12
HETATM   12  O   UNL     1      41.188  38.902  46.297  1.00  0.00    -0.359 OA
HETATM   13  H   UNL     1      40.584  39.416  46.865  1.00  0.00     0.213 HD
ENDBRANCH   6  12
BRANCH   3  14
HETATM   14  O   UNL     1      43.106  39.220  50.721  1.00  0.00    -0.380 OA
HETATM   15  H   UNL     1      42.292  39.761  50.683  1.00  0.00     0.211 HD
ENDBRANCH   3  14
BRANCH   5  16
HETATM   16  O   UNL     1      42.367  40.560  48.308  1.00  0.00    -0.378 OA
HETATM   17  H   UNL     1      43.292  40.721  48.586  1.00  0.00     0.211 HD
ENDBRANCH   5  16
TORSDOF 6
ENDMDL
