MODEL 1
REMARK VINA RESULT:    -5.930      0.000      0.000
REMARK INTER + INTRA:         -10.266
REMARK INTER:                  -9.057
REMARK INTRA:                  -1.209
REMARK UNBOUND:                -1.389
REMARK  11 active torsions:
REMARK  status: ('A' for Active; 'I' for Inactive)
REMARK    1  A    between atoms: S_1  and  C_17 
REMARK    2  A    between atoms: O_3  and  C_16 
REMARK    3  A    between atoms: O_3  and  C_18 
REMARK    4  A    between atoms: O_4  and  C_12 
REMARK    5  A    between atoms: O_5  and  C_14 
REMARK    6  A    between atoms: O_6  and  C_15 
REMARK    7  A    between atoms: O_10  and  C_19 
REMARK    8  A    between atoms: O_11  and  C_20 
REMARK    9  A    between atoms: C_13  and  C_17 
REMARK   10  A    between atoms: C_18  and  C_19 
REMARK   11  A    between atoms: C_19  and  C_20 
ROOT
HETATM    1  O   UNL     1      47.034  44.401  49.493  1.00  0.00    -0.328 OA
HETATM    2  C   UNL     1      47.710  42.513  50.894  1.00  0.00     0.168 C 
HETATM    3  C   UNL     1      46.743  43.706  50.734  1.00  0.00     0.166 C 
HETATM    4  C   UNL     1      47.634  41.605  49.652  1.00  0.00     0.172 C 
HETATM    5  C   UNL     1      47.811  42.393  48.353  1.00  0.00     0.197 C 
HETATM    6  C   UNL     1      46.847  43.592  48.336  1.00  0.00     0.266 C 
ENDROOT
BRANCH   6   7
HETATM    7  O   UNL     1      45.494  43.126  48.237  1.00  0.00    -0.326 OA
BRANCH   7   8
HETATM    8  C   UNL     1      44.631  44.132  47.699  1.00  0.00     0.177 C 
BRANCH   8   9
HETATM    9  C   UNL     1      43.252  44.066  48.355  1.00  0.00     0.170 C 
BRANCH   9  10
HETATM   10  O   UNL     1      42.360  44.982  47.700  1.00  0.00    -0.380 OA
HETATM   11  H   UNL     1      41.855  44.411  47.084  1.00  0.00     0.211 HD
ENDBRANCH   9  10
BRANCH   9  12
HETATM   12  C   UNL     1      43.321  44.425  49.842  1.00  0.00     0.169 C 
BRANCH  12  13
HETATM   13  O   UNL     1      42.833  43.317  50.611  1.00  0.00    -0.380 OA
HETATM   14  H   UNL     1      41.952  43.616  50.914  1.00  0.00     0.211 HD
ENDBRANCH  12  13
ENDBRANCH   9  12
ENDBRANCH   8   9
ENDBRANCH   7   8
ENDBRANCH   6   7
BRANCH   5  15
HETATM   15  O   UNL     1      47.576  41.561  47.202  1.00  0.00    -0.378 OA
HETATM   16  H   UNL     1      48.458  41.251  46.920  1.00  0.00     0.211 HD
ENDBRANCH   5  15
BRANCH   3  17
HETATM   17  C   UNL     1      46.849  44.755  51.836  1.00  0.00     0.178 C 
BRANCH  17  18
HETATM   18  S   UNL     1      45.882  44.343  53.261  1.00  0.00     0.118 S 
HETATM   19  O   UNL     1      46.880  43.785  54.169  1.00  0.00    -0.594 OA
HETATM   20  O   UNL     1      44.909  43.378  52.754  1.00  0.00    -0.594 OA
HETATM   21  O   UNL     1      45.326  45.628  53.671  1.00  0.00    -0.594 OA
ENDBRANCH  17  18
ENDBRANCH   3  17
BRANCH   4  22
HETATM   22  O   UNL     1      48.646  40.587  49.771  1.00  0.00    -0.380 OA
HETATM   23  H   UNL     1      49.478  41.065  49.569  1.00  0.00     0.211 HD
ENDBRANCH   4  22
BRANCH   2  24
HETATM   24  O   UNL     1      47.467  41.640  52.001  1.00  0.00    -0.380 OA
HETATM   25  H   UNL     1      48.180  40.951  52.050  1.00  0.00     0.211 HD
ENDBRANCH   2  24
TORSDOF 11
ENDMDL
MODEL 2
REMARK VINA RESULT:    -5.527      1.976      4.384
REMARK INTER + INTRA:          -9.662
REMARK INTER:                  -8.286
REMARK INTRA:                  -1.376
REMARK UNBOUND:                -1.389
REMARK  11 active torsions:
REMARK  status: ('A' for Active; 'I' for Inactive)
REMARK    1  A    between atoms: S_1  and  C_17 
REMARK    2  A    between atoms: O_3  and  C_16 
REMARK    3  A    between atoms: O_3  and  C_18 
REMARK    4  A    between atoms: O_4  and  C_12 
REMARK    5  A    between atoms: O_5  and  C_14 
REMARK    6  A    between atoms: O_6  and  C_15 
REMARK    7  A    between atoms: O_10  and  C_19 
REMARK    8  A    between atoms: O_11  and  C_20 
REMARK    9  A    between atoms: C_13  and  C_17 
REMARK   10  A    between atoms: C_18  and  C_19 
REMARK   11  A    between atoms: C_19  and  C_20 
ROOT
HETATM    1  O   UNL     1      45.623  43.121  52.370  1.00  0.00    -0.328 OA
HETATM    2  C   UNL     1      43.578  44.135  53.251  1.00  0.00     0.168 C 
HETATM    3  C   UNL     1      45.112  44.253  53.123  1.00  0.00     0.166 C 
HETATM    4  C   UNL     1      42.943  43.993  51.854  1.00  0.00     0.172 C 
HETATM    5  C   UNL     1      43.598  42.878  51.038  1.00  0.00     0.197 C 
HETATM    6  C   UNL     1      45.125  43.060  51.037  1.00  0.00     0.266 C 
ENDROOT
BRANCH   6   7
HETATM    7  O   UNL     1      45.473  44.236  50.294  1.00  0.00    -0.326 OA
BRANCH   7   8
HETATM    8  C   UNL     1      46.769  44.117  49.700  1.00  0.00     0.177 C 
BRANCH   8   9
HETATM    9  C   UNL     1      46.826  42.908  48.767  1.00  0.00     0.170 C 
BRANCH   9  10
HETATM   10  O   UNL     1      48.185  42.467  48.628  1.00  0.00    -0.380 OA
HETATM   11  H   UNL     1      48.119  41.491  48.695  1.00  0.00     0.211 HD
ENDBRANCH   9  10
BRANCH   9  12
HETATM   12  C   UNL     1      46.273  43.246  47.379  1.00  0.00     0.169 C 
BRANCH  12  13
HETATM   13  O   UNL     1      44.857  43.445  47.478  1.00  0.00    -0.380 OA
HETATM   14  H   UNL     1      44.548  42.663  47.979  1.00  0.00     0.211 HD
ENDBRANCH  12  13
ENDBRANCH   9  12
ENDBRANCH   8   9
ENDBRANCH   7   8
ENDBRANCH   6   7
BRANCH   5  15
HETATM   15  O   UNL     1      43.106  42.865  49.685  1.00  0.00    -0.378 OA
HETATM   16  H   UNL     1      43.488  43.657  49.260  1.00  0.00     0.211 HD
ENDBRANCH   5  15
BRANCH   3  17
HETATM   17  C   UNL     1      45.858  44.241  54.454  1.00  0.00     0.178 C 
BRANCH  17  18
HETATM   18  S   UNL     1      46.234  45.871  55.035  1.00  0.00     0.118 S 
HETATM   19  O   UNL     1      47.458  45.657  55.802  1.00  0.00    -0.594 OA
HETATM   20  O   UNL     1      45.066  46.232  55.835  1.00  0.00    -0.594 OA
HETATM   21  O   UNL     1      46.403  46.634  53.804  1.00  0.00    -0.594 OA
ENDBRANCH  17  18
ENDBRANCH   3  17
BRANCH   4  22
HETATM   22  O   UNL     1      41.534  43.743  52.019  1.00  0.00    -0.380 OA
HETATM   23  H   UNL     1      41.435  42.803  51.758  1.00  0.00     0.211 HD
ENDBRANCH   4  22
BRANCH   2  24
HETATM   24  O   UNL     1      42.901  45.245  53.850  1.00  0.00    -0.380 OA
HETATM   25  H   UNL     1      42.309  44.925  54.579  1.00  0.00     0.211 HD
ENDBRANCH   2  24
TORSDOF 11
ENDMDL
MODEL 3
REMARK VINA RESULT:    -5.458      2.352      6.046
REMARK INTER + INTRA:          -9.560
REMARK INTER:                  -8.097
REMARK INTRA:                  -1.462
REMARK UNBOUND:                -1.389
REMARK  11 active torsions:
REMARK  status: ('A' for Active; 'I' for Inactive)
REMARK    1  A    between atoms: S_1  and  C_17 
REMARK    2  A    between atoms: O_3  and  C_16 
REMARK    3  A    between atoms: O_3  and  C_18 
REMARK    4  A    between atoms: O_4  and  C_12 
REMARK    5  A    between atoms: O_5  and  C_14 
REMARK    6  A    between atoms: O_6  and  C_15 
REMARK    7  A    between atoms: O_10  and  C_19 
REMARK    8  A    between atoms: O_11  and  C_20 
REMARK    9  A    between atoms: C_13  and  C_17 
REMARK   10  A    between atoms: C_18  and  C_19 
REMARK   11  A    between atoms: C_19  and  C_20 
ROOT
HETATM    1  O   UNL     1      45.676  44.618  51.795  1.00  0.00    -0.328 OA
HETATM    2  C   UNL     1      43.657  43.799  50.684  1.00  0.00     0.168 C 
HETATM    3  C   UNL     1      45.196  43.719  50.760  1.00  0.00     0.166 C 
HETATM    4  C   UNL     1      43.046  43.517  52.069  1.00  0.00     0.172 C 
HETATM    5  C   UNL     1      43.671  44.389  53.160  1.00  0.00     0.197 C 
HETATM    6  C   UNL     1      45.204  44.282  53.096  1.00  0.00     0.266 C 
ENDROOT
BRANCH   6   7
HETATM    7  O   UNL     1      45.615  42.962  53.478  1.00  0.00    -0.326 OA
BRANCH   7   8
HETATM    8  C   UNL     1      46.542  42.996  54.567  1.00  0.00     0.177 C 
BRANCH   8   9
HETATM    9  C   UNL     1      47.711  42.044  54.310  1.00  0.00     0.170 C 
BRANCH   9  10
HETATM   10  O   UNL     1      48.921  42.610  54.838  1.00  0.00    -0.380 OA
HETATM   11  H   UNL     1      48.897  42.362  55.786  1.00  0.00     0.211 HD
ENDBRANCH   9  10
BRANCH   9  12
HETATM   12  C   UNL     1      47.901  41.783  52.813  1.00  0.00     0.169 C 
BRANCH  12  13
HETATM   13  O   UNL     1      48.321  42.998  52.179  1.00  0.00    -0.380 OA
HETATM   14  H   UNL     1      48.364  42.762  51.230  1.00  0.00     0.211 HD
ENDBRANCH  12  13
ENDBRANCH   9  12
ENDBRANCH   8   9
ENDBRANCH   7   8
ENDBRANCH   6   7
BRANCH   5  15
HETATM   15  O   UNL     1      43.208  44.002  54.466  1.00  0.00    -0.378 OA
HETATM   16  H   UNL     1      42.266  43.771  54.352  1.00  0.00     0.211 HD
ENDBRANCH   5  15
BRANCH   3  17
HETATM   17  C   UNL     1      45.914  44.135  49.480  1.00  0.00     0.178 C 
BRANCH  17  18
HETATM   18  S   UNL     1      47.033  42.893  48.895  1.00  0.00     0.118 S 
HETATM   19  O   UNL     1      46.624  41.716  49.659  1.00  0.00    -0.594 OA
HETATM   20  O   UNL     1      48.350  43.419  49.243  1.00  0.00    -0.594 OA
HETATM   21  O   UNL     1      46.746  42.830  47.467  1.00  0.00    -0.594 OA
ENDBRANCH  17  18
ENDBRANCH   3  17
BRANCH   4  22
HETATM   22  O   UNL     1      41.624  43.740  51.993  1.00  0.00    -0.380 OA
HETATM   23  H   UNL     1      41.370  43.926  52.922  1.00  0.00     0.211 HD
ENDBRANCH   4  22
BRANCH   2  24
HETATM   24  O   UNL     1      43.013  42.871  49.804  1.00  0.00    -0.380 OA
HETATM   25  H   UNL     1      42.516  42.194  50.333  1.00  0.00     0.211 HD
ENDBRANCH   2  24
TORSDOF 11
ENDMDL
MODEL 4
REMARK VINA RESULT:    -5.453      2.339      4.695
REMARK INTER + INTRA:          -9.553
REMARK INTER:                  -7.909
REMARK INTRA:                  -1.644
REMARK UNBOUND:                -1.389
REMARK  11 active torsions:
REMARK  status: ('A' for Active; 'I' for Inactive)
REMARK    1  A    between atoms: S_1  and  C_17 
REMARK    2  A    between atoms: O_3  and  C_16 
REMARK    3  A    between atoms: O_3  and  C_18 
REMARK    4  A    between atoms: O_4  and  C_12 
REMARK    5  A    between atoms: O_5  and  C_14 
REMARK    6  A    between atoms: O_6  and  C_15 
REMARK    7  A    between atoms: O_10  and  C_19 
REMARK    8  A    between atoms: O_11  and  C_20 
REMARK    9  A    between atoms: C_13  and  C_17 
REMARK   10  A    between atoms: C_18  and  C_19 
REMARK   11  A    between atoms: C_19  and  C_20 
ROOT
HETATM    1  O   UNL     1      45.023  41.719  52.046  1.00  0.00    -0.328 OA
HETATM    2  C   UNL     1      47.349  42.473  51.959  1.00  0.00     0.168 C 
HETATM    3  C   UNL     1      45.952  42.553  51.306  1.00  0.00     0.166 C 
HETATM    4  C   UNL     1      47.253  42.839  53.452  1.00  0.00     0.172 C 
HETATM    5  C   UNL     1      46.170  42.035  54.172  1.00  0.00     0.197 C 
HETATM    6  C   UNL     1      44.845  42.134  53.396  1.00  0.00     0.266 C 
ENDROOT
BRANCH   6   7
HETATM    7  O   UNL     1      44.339  43.474  53.470  1.00  0.00    -0.326 OA
BRANCH   7   8
HETATM    8  C   UNL     1      42.917  43.507  53.316  1.00  0.00     0.177 C 
BRANCH   8   9
HETATM    9  C   UNL     1      42.530  44.252  52.039  1.00  0.00     0.170 C 
BRANCH   9  10
HETATM   10  O   UNL     1      42.530  43.341  50.929  1.00  0.00    -0.380 OA
HETATM   11  H   UNL     1      42.505  43.930  50.146  1.00  0.00     0.211 HD
ENDBRANCH   9  10
BRANCH   9  12
HETATM   12  C   UNL     1      43.506  45.394  51.739  1.00  0.00     0.169 C 
BRANCH  12  13
HETATM   13  O   UNL     1      43.556  46.271  52.871  1.00  0.00    -0.380 OA
HETATM   14  H   UNL     1      42.759  46.031  53.386  1.00  0.00     0.211 HD
ENDBRANCH  12  13
ENDBRANCH   9  12
ENDBRANCH   8   9
ENDBRANCH   7   8
ENDBRANCH   6   7
BRANCH   5  15
HETATM   15  O   UNL     1      45.984  42.502  55.520  1.00  0.00    -0.378 OA
HETATM   16  H   UNL     1      45.913  43.473  55.453  1.00  0.00     0.211 HD
ENDBRANCH   5  15
BRANCH   3  17
HETATM   17  C   UNL     1      45.901  42.059  49.863  1.00  0.00     0.178 C 
BRANCH  17  18
HETATM   18  S   UNL     1      45.704  43.379  48.700  1.00  0.00     0.118 S 
HETATM   19  O   UNL     1      46.258  42.806  47.476  1.00  0.00    -0.594 OA
HETATM   20  O   UNL     1      46.490  44.469  49.275  1.00  0.00    -0.594 OA
HETATM   21  O   UNL     1      44.262  43.597  48.681  1.00  0.00    -0.594 OA
ENDBRANCH  17  18
ENDBRANCH   3  17
BRANCH   4  22
HETATM   22  O   UNL     1      48.541  42.616  54.058  1.00  0.00    -0.380 OA
HETATM   23  H   UNL     1      48.930  43.514  54.111  1.00  0.00     0.211 HD
ENDBRANCH   4  22
BRANCH   2  24
HETATM   24  O   UNL     1      48.351  43.346  51.430  1.00  0.00    -0.380 OA
HETATM   25  H   UNL     1      47.922  44.101  50.951  1.00  0.00     0.211 HD
ENDBRANCH   2  24
TORSDOF 11
ENDMDL
MODEL 5
REMARK VINA RESULT:    -5.183      2.272      5.661
REMARK INTER + INTRA:          -9.147
REMARK INTER:                  -7.656
REMARK INTRA:                  -1.491
REMARK UNBOUND:                -1.389
REMARK  11 active torsions:
REMARK  status: ('A' for Active; 'I' for Inactive)
REMARK    1  A    between atoms: S_1  and  C_17 
REMARK    2  A    between atoms: O_3  and  C_16 
REMARK    3  A    between atoms: O_3  and  C_18 
REMARK    4  A    between atoms: O_4  and  C_12 
REMARK    5  A    between atoms: O_5  and  C_14 
REMARK    6  A    between atoms: O_6  and  C_15 
REMARK    7  A    between atoms: O_10  and  C_19 
REMARK    8  A    between atoms: O_11  and  C_20 
REMARK    9  A    between atoms: C_13  and  C_17 
REMARK   10  A    between atoms: C_18  and  C_19 
REMARK   11  A    between atoms: C_19  and  C_20 
ROOT
HETATM    1  O   UNL     1      46.273  44.642  51.486  1.00  0.00    -0.328 OA
HETATM    2  C   UNL     1      44.823  44.107  49.590  1.00  0.00     0.168 C 
HETATM    3  C   UNL     1      46.007  43.644  50.466  1.00  0.00     0.166 C 
HETATM    4  C   UNL     1      43.602  44.415  50.477  1.00  0.00     0.172 C 
HETATM    5  C   UNL     1      43.951  45.366  51.623  1.00  0.00     0.197 C 
HETATM    6  C   UNL     1      45.182  44.839  52.380  1.00  0.00     0.266 C 
ENDROOT
BRANCH   6   7
HETATM    7  O   UNL     1      44.845  43.627  53.070  1.00  0.00    -0.326 OA
BRANCH   7   8
HETATM    8  C   UNL     1      45.291  43.657  54.429  1.00  0.00     0.177 C 
BRANCH   8   9
HETATM    9  C   UNL     1      46.514  42.760  54.616  1.00  0.00     0.170 C 
BRANCH   9  10
HETATM   10  O   UNL     1      47.633  43.312  53.904  1.00  0.00    -0.380 OA
HETATM   11  H   UNL     1      47.300  44.179  53.588  1.00  0.00     0.211 HD
ENDBRANCH   9  10
BRANCH   9  12
HETATM   12  C   UNL     1      46.252  41.342  54.097  1.00  0.00     0.169 C 
BRANCH  12  13
HETATM   13  O   UNL     1      46.607  41.282  52.710  1.00  0.00    -0.380 OA
HETATM   14  H   UNL     1      45.816  40.891  52.285  1.00  0.00     0.211 HD
ENDBRANCH  12  13
ENDBRANCH   9  12
ENDBRANCH   8   9
ENDBRANCH   7   8
ENDBRANCH   6   7
BRANCH   5  15
HETATM   15  O   UNL     1      42.844  45.514  52.532  1.00  0.00    -0.378 OA
HETATM   16  H   UNL     1      42.588  46.455  52.481  1.00  0.00     0.211 HD
ENDBRANCH   5  15
BRANCH   3  17
HETATM   17  C   UNL     1      47.318  43.461  49.708  1.00  0.00     0.178 C 
BRANCH  17  18
HETATM   18  S   UNL     1      47.399  41.911  48.856  1.00  0.00     0.118 S 
HETATM   19  O   UNL     1      46.432  41.098  49.589  1.00  0.00    -0.594 OA
HETATM   20  O   UNL     1      48.791  41.498  49.015  1.00  0.00    -0.594 OA
HETATM   21  O   UNL     1      47.006  42.258  47.494  1.00  0.00    -0.594 OA
ENDBRANCH  17  18
ENDBRANCH   3  17
BRANCH   4  22
HETATM   22  O   UNL     1      42.568  44.978  49.646  1.00  0.00    -0.380 OA
HETATM   23  H   UNL     1      42.141  45.642  50.228  1.00  0.00     0.211 HD
ENDBRANCH   4  22
BRANCH   2  24
HETATM   24  O   UNL     1      44.344  43.171  48.619  1.00  0.00    -0.380 OA
HETATM   25  H   UNL     1      43.459  42.820  48.897  1.00  0.00     0.211 HD
ENDBRANCH   2  24
TORSDOF 11
ENDMDL
MODEL 6
REMARK VINA RESULT:    -5.176      2.324      4.672
REMARK INTER + INTRA:          -9.138
REMARK INTER:                  -7.748
REMARK INTRA:                  -1.389
REMARK UNBOUND:                -1.389
REMARK  11 active torsions:
REMARK  status: ('A' for Active; 'I' for Inactive)
REMARK    1  A    between atoms: S_1  and  C_17 
REMARK    2  A    between atoms: O_3  and  C_16 
REMARK    3  A    between atoms: O_3  and  C_18 
REMARK    4  A    between atoms: O_4  and  C_12 
REMARK    5  A    between atoms: O_5  and  C_14 
REMARK    6  A    between atoms: O_6  and  C_15 
REMARK    7  A    between atoms: O_10  and  C_19 
REMARK    8  A    between atoms: O_11  and  C_20 
REMARK    9  A    between atoms: C_13  and  C_17 
REMARK   10  A    between atoms: C_18  and  C_19 
REMARK   11  A    between atoms: C_19  and  C_20 
ROOT
HETATM    1  O   UNL     1      44.579  41.889  52.163  1.00  0.00    -0.328 OA
HETATM    2  C   UNL     1      43.136  43.861  52.281  1.00  0.00     0.168 C 
HETATM    3  C   UNL     1      44.200  43.009  53.005  1.00  0.00     0.166 C 
HETATM    4  C   UNL     1      43.658  44.286  50.895  1.00  0.00     0.172 C 
HETATM    5  C   UNL     1      44.174  43.096  50.086  1.00  0.00     0.197 C 
HETATM    6  C   UNL     1      45.172  42.286  50.930  1.00  0.00     0.266 C 
ENDROOT
BRANCH   6   7
HETATM    7  O   UNL     1      46.363  43.056  51.146  1.00  0.00    -0.326 OA
BRANCH   7   8
HETATM    8  C   UNL     1      47.539  42.303  50.836  1.00  0.00     0.177 C 
BRANCH   8   9
HETATM    9  C   UNL     1      48.185  42.818  49.550  1.00  0.00     0.170 C 
BRANCH   9  10
HETATM   10  O   UNL     1      47.651  44.110  49.224  1.00  0.00    -0.380 OA
HETATM   11  H   UNL     1      48.046  44.309  48.349  1.00  0.00     0.211 HD
ENDBRANCH   9  10
BRANCH   9  12
HETATM   12  C   UNL     1      47.929  41.868  48.376  1.00  0.00     0.169 C 
BRANCH  12  13
HETATM   13  O   UNL     1      46.970  42.468  47.494  1.00  0.00    -0.380 OA
HETATM   14  H   UNL     1      47.511  43.061  46.934  1.00  0.00     0.211 HD
ENDBRANCH  12  13
ENDBRANCH   9  12
ENDBRANCH   8   9
ENDBRANCH   7   8
ENDBRANCH   6   7
BRANCH   5  15
HETATM   15  O   UNL     1      44.804  43.528  48.866  1.00  0.00    -0.378 OA
HETATM   16  H   UNL     1      44.725  42.776  48.249  1.00  0.00     0.211 HD
ENDBRANCH   5  15
BRANCH   3  17
HETATM   17  C   UNL     1      43.731  42.401  54.323  1.00  0.00     0.178 C 
BRANCH  17  18
HETATM   18  S   UNL     1      44.335  43.287  55.732  1.00  0.00     0.118 S 
HETATM   19  O   UNL     1      43.364  44.371  55.862  1.00  0.00    -0.594 OA
HETATM   20  O   UNL     1      45.674  43.710  55.330  1.00  0.00    -0.594 OA
HETATM   21  O   UNL     1      44.292  42.291  56.797  1.00  0.00    -0.594 OA
ENDBRANCH  17  18
ENDBRANCH   3  17
BRANCH   4  22
HETATM   22  O   UNL     1      42.591  44.954  50.193  1.00  0.00    -0.380 OA
HETATM   23  H   UNL     1      42.269  44.275  49.563  1.00  0.00     0.211 HD
ENDBRANCH   4  22
BRANCH   2  24
HETATM   24  O   UNL     1      42.754  45.083  52.920  1.00  0.00    -0.380 OA
HETATM   25  H   UNL     1      43.420  45.790  52.720  1.00  0.00     0.211 HD
ENDBRANCH   2  24
TORSDOF 11
ENDMDL
MODEL 7
REMARK VINA RESULT:    -5.168      2.442      5.841
REMARK INTER + INTRA:          -9.126
REMARK INTER:                  -7.724
REMARK INTRA:                  -1.402
REMARK UNBOUND:                -1.389
REMARK  11 active torsions:
REMARK  status: ('A' for Active; 'I' for Inactive)
REMARK    1  A    between atoms: S_1  and  C_17 
REMARK    2  A    between atoms: O_3  and  C_16 
REMARK    3  A    between atoms: O_3  and  C_18 
REMARK    4  A    between atoms: O_4  and  C_12 
REMARK    5  A    between atoms: O_5  and  C_14 
REMARK    6  A    between atoms: O_6  and  C_15 
REMARK    7  A    between atoms: O_10  and  C_19 
REMARK    8  A    between atoms: O_11  and  C_20 
REMARK    9  A    between atoms: C_13  and  C_17 
REMARK   10  A    between atoms: C_18  and  C_19 
REMARK   11  A    between atoms: C_19  and  C_20 
ROOT
HETATM    1  O   UNL     1      46.456  44.648  51.553  1.00  0.00    -0.328 OA
HETATM    2  C   UNL     1      44.863  44.087  49.783  1.00  0.00     0.168 C 
HETATM    3  C   UNL     1      46.144  43.663  50.533  1.00  0.00     0.166 C 
HETATM    4  C   UNL     1      43.717  44.314  50.787  1.00  0.00     0.172 C 
HETATM    5  C   UNL     1      44.126  45.253  51.923  1.00  0.00     0.197 C 
HETATM    6  C   UNL     1      45.445  44.769  52.548  1.00  0.00     0.266 C 
ENDROOT
BRANCH   6   7
HETATM    7  O   UNL     1      45.232  43.526  53.232  1.00  0.00    -0.326 OA
BRANCH   7   8
HETATM    8  C   UNL     1      46.045  43.426  54.404  1.00  0.00     0.177 C 
BRANCH   8   9
HETATM    9  C   UNL     1      46.154  44.781  55.103  1.00  0.00     0.170 C 
BRANCH   9  10
HETATM   10  O   UNL     1      47.462  44.927  55.676  1.00  0.00    -0.380 OA
HETATM   11  H   UNL     1      47.579  45.898  55.741  1.00  0.00     0.211 HD
ENDBRANCH   9  10
BRANCH   9  12
HETATM   12  C   UNL     1      45.110  44.923  56.215  1.00  0.00     0.169 C 
BRANCH  12  13
HETATM   13  O   UNL     1      43.830  44.529  55.704  1.00  0.00    -0.380 OA
HETATM   14  H   UNL     1      43.678  45.146  54.959  1.00  0.00     0.211 HD
ENDBRANCH  12  13
ENDBRANCH   9  12
ENDBRANCH   8   9
ENDBRANCH   7   8
ENDBRANCH   6   7
BRANCH   5  15
HETATM   15  O   UNL     1      43.103  45.324  52.933  1.00  0.00    -0.378 OA
HETATM   16  H   UNL     1      42.324  44.878  52.549  1.00  0.00     0.211 HD
ENDBRANCH   5  15
BRANCH   3  17
HETATM   17  C   UNL     1      47.386  43.563  49.653  1.00  0.00     0.178 C 
BRANCH  17  18
HETATM   18  S   UNL     1      47.436  42.060  48.718  1.00  0.00     0.118 S 
HETATM   19  O   UNL     1      46.916  42.481  47.419  1.00  0.00    -0.594 OA
HETATM   20  O   UNL     1      46.562  41.157  49.463  1.00  0.00    -0.594 OA
HETATM   21  O   UNL     1      48.850  41.705  48.730  1.00  0.00    -0.594 OA
ENDBRANCH  17  18
ENDBRANCH   3  17
BRANCH   4  22
HETATM   22  O   UNL     1      42.584  44.844  50.071  1.00  0.00    -0.380 OA
HETATM   23  H   UNL     1      42.727  44.534  49.152  1.00  0.00     0.211 HD
ENDBRANCH   4  22
BRANCH   2  24
HETATM   24  O   UNL     1      44.340  43.153  48.834  1.00  0.00    -0.380 OA
HETATM   25  H   UNL     1      44.976  42.400  48.716  1.00  0.00     0.211 HD
ENDBRANCH   2  24
TORSDOF 11
ENDMDL
MODEL 8
REMARK VINA RESULT:    -4.889      2.360      4.657
REMARK INTER + INTRA:          -8.708
REMARK INTER:                  -7.426
REMARK INTRA:                  -1.283
REMARK UNBOUND:                -1.389
REMARK  11 active torsions:
REMARK  status: ('A' for Active; 'I' for Inactive)
REMARK    1  A    between atoms: S_1  and  C_17 
REMARK    2  A    between atoms: O_3  and  C_16 
REMARK    3  A    between atoms: O_3  and  C_18 
REMARK    4  A    between atoms: O_4  and  C_12 
REMARK    5  A    between atoms: O_5  and  C_14 
REMARK    6  A    between atoms: O_6  and  C_15 
REMARK    7  A    between atoms: O_10  and  C_19 
REMARK    8  A    between atoms: O_11  and  C_20 
REMARK    9  A    between atoms: C_13  and  C_17 
REMARK   10  A    between atoms: C_18  and  C_19 
REMARK   11  A    between atoms: C_19  and  C_20 
ROOT
HETATM    1  O   UNL     1      44.893  41.693  52.569  1.00  0.00    -0.328 OA
HETATM    2  C   UNL     1      44.095  43.636  53.824  1.00  0.00     0.168 C 
HETATM    3  C   UNL     1      45.276  42.675  53.568  1.00  0.00     0.166 C 
HETATM    4  C   UNL     1      43.631  44.264  52.496  1.00  0.00     0.172 C 
HETATM    5  C   UNL     1      43.366  43.207  51.424  1.00  0.00     0.197 C 
HETATM    6  C   UNL     1      44.579  42.269  51.305  1.00  0.00     0.266 C 
ENDROOT
BRANCH   6   7
HETATM    7  O   UNL     1      45.697  42.988  50.765  1.00  0.00    -0.326 OA
BRANCH   7   8
HETATM    8  C   UNL     1      46.582  42.121  50.049  1.00  0.00     0.177 C 
BRANCH   8   9
HETATM    9  C   UNL     1      47.336  42.894  48.967  1.00  0.00     0.170 C 
BRANCH   9  10
HETATM   10  O   UNL     1      48.485  43.535  49.543  1.00  0.00    -0.380 OA
HETATM   11  H   UNL     1      48.208  44.471  49.629  1.00  0.00     0.211 HD
ENDBRANCH   9  10
BRANCH   9  12
HETATM   12  C   UNL     1      46.448  43.962  48.321  1.00  0.00     0.169 C 
BRANCH  12  13
HETATM   13  O   UNL     1      45.196  43.367  47.957  1.00  0.00    -0.380 OA
HETATM   14  H   UNL     1      44.832  43.983  47.288  1.00  0.00     0.211 HD
ENDBRANCH  12  13
ENDBRANCH   9  12
ENDBRANCH   8   9
ENDBRANCH   7   8
ENDBRANCH   6   7
BRANCH   5  15
HETATM   15  O   UNL     1      43.092  43.816  50.148  1.00  0.00    -0.378 OA
HETATM   16  H   UNL     1      43.358  43.156  49.480  1.00  0.00     0.211 HD
ENDBRANCH   5  15
BRANCH   3  17
HETATM   17  C   UNL     1      45.716  41.877  54.792  1.00  0.00     0.178 C 
BRANCH  17  18
HETATM   18  S   UNL     1      47.217  42.493  55.500  1.00  0.00     0.118 S 
HETATM   19  O   UNL     1      48.066  42.679  54.326  1.00  0.00    -0.594 OA
HETATM   20  O   UNL     1      47.642  41.423  56.400  1.00  0.00    -0.594 OA
HETATM   21  O   UNL     1      46.795  43.725  56.157  1.00  0.00    -0.594 OA
ENDBRANCH  17  18
ENDBRANCH   3  17
BRANCH   4  22
HETATM   22  O   UNL     1      42.444  45.040  52.751  1.00  0.00    -0.380 OA
HETATM   23  H   UNL     1      42.140  45.296  51.855  1.00  0.00     0.211 HD
ENDBRANCH   4  22
BRANCH   2  24
HETATM   24  O   UNL     1      44.354  44.749  54.686  1.00  0.00    -0.380 OA
HETATM   25  H   UNL     1      44.829  45.461  54.183  1.00  0.00     0.211 HD
ENDBRANCH   2  24
TORSDOF 11
ENDMDL
MODEL 9
REMARK VINA RESULT:    -4.379      3.359      6.302
REMARK INTER + INTRA:          -7.945
REMARK INTER:                  -6.667
REMARK INTRA:                  -1.277
REMARK UNBOUND:                -1.389
REMARK  11 active torsions:
REMARK  status: ('A' for Active; 'I' for Inactive)
REMARK    1  A    between atoms: S_1  and  C_17 
REMARK    2  A    between atoms: O_3  and  C_16 
REMARK    3  A    between atoms: O_3  and  C_18 
REMARK    4  A    between atoms: O_4  and  C_12 
REMARK    5  A    between atoms: O_5  and  C_14 
REMARK    6  A    between atoms: O_6  and  C_15 
REMARK    7  A    between atoms: O_10  and  C_19 
REMARK    8  A    between atoms: O_11  and  C_20 
REMARK    9  A    between atoms: C_13  and  C_17 
REMARK   10  A    between atoms: C_18  and  C_19 
REMARK   11  A    between atoms: C_19  and  C_20 
ROOT
HETATM    1  O   UNL     1      45.789  43.958  53.136  1.00  0.00    -0.328 OA
HETATM    2  C   UNL     1      44.053  44.087  51.417  1.00  0.00     0.168 C 
HETATM    3  C   UNL     1      45.474  43.594  51.766  1.00  0.00     0.166 C 
HETATM    4  C   UNL     1      43.041  43.543  52.443  1.00  0.00     0.172 C 
HETATM    5  C   UNL     1      43.474  43.826  53.883  1.00  0.00     0.197 C 
HETATM    6  C   UNL     1      44.923  43.355  54.093  1.00  0.00     0.266 C 
ENDROOT
BRANCH   6   7
HETATM    7  O   UNL     1      44.983  41.924  54.025  1.00  0.00    -0.326 OA
BRANCH   7   8
HETATM    8  C   UNL     1      46.080  41.408  54.786  1.00  0.00     0.177 C 
BRANCH   8   9
HETATM    9  C   UNL     1      45.599  40.341  55.769  1.00  0.00     0.170 C 
BRANCH   9  10
HETATM   10  O   UNL     1      44.654  39.476  55.121  1.00  0.00    -0.380 OA
HETATM   11  H   UNL     1      43.785  39.861  55.362  1.00  0.00     0.211 HD
ENDBRANCH   9  10
BRANCH   9  12
HETATM   12  C   UNL     1      44.930  40.970  56.995  1.00  0.00     0.169 C 
BRANCH  12  13
HETATM   13  O   UNL     1      43.558  41.246  56.686  1.00  0.00    -0.380 OA
HETATM   14  H   UNL     1      43.521  42.224  56.647  1.00  0.00     0.211 HD
ENDBRANCH  12  13
ENDBRANCH   9  12
ENDBRANCH   8   9
ENDBRANCH   7   8
ENDBRANCH   6   7
BRANCH   5  15
HETATM   15  O   UNL     1      42.606  43.173  54.826  1.00  0.00    -0.378 OA
HETATM   16  H   UNL     1      43.159  42.505  55.273  1.00  0.00     0.211 HD
ENDBRANCH   5  15
BRANCH   3  17
HETATM   17  C   UNL     1      46.580  44.200  50.908  1.00  0.00     0.178 C 
BRANCH  17  18
HETATM   18  S   UNL     1      46.948  43.215  49.482  1.00  0.00     0.118 S 
HETATM   19  O   UNL     1      46.083  43.803  48.462  1.00  0.00    -0.594 OA
HETATM   20  O   UNL     1      46.580  41.861  49.890  1.00  0.00    -0.594 OA
HETATM   21  O   UNL     1      48.376  43.437  49.283  1.00  0.00    -0.594 OA
ENDBRANCH  17  18
ENDBRANCH   3  17
BRANCH   4  22
HETATM   22  O   UNL     1      41.756  44.135  52.172  1.00  0.00    -0.380 OA
HETATM   23  H   UNL     1      41.982  45.011  51.793  1.00  0.00     0.211 HD
ENDBRANCH   4  22
BRANCH   2  24
HETATM   24  O   UNL     1      43.535  43.689  50.144  1.00  0.00    -0.380 OA
HETATM   25  H   UNL     1      44.266  43.322  49.583  1.00  0.00     0.211 HD
ENDBRANCH   2  24
TORSDOF 11
ENDMDL
MODEL 10
REMARK VINA RESULT:    -4.192      3.116      4.931
REMARK INTER + INTRA:          -7.664
REMARK INTER:                  -6.708
REMARK INTRA:                  -0.956
REMARK UNBOUND:                -1.389
REMARK  11 active torsions:
REMARK  status: ('A' for Active; 'I' for Inactive)
REMARK    1  A    between atoms: S_1  and  C_17 
REMARK    2  A    between atoms: O_3  and  C_16 
REMARK    3  A    between atoms: O_3  and  C_18 
REMARK    4  A    between atoms: O_4  and  C_12 
REMARK    5  A    between atoms: O_5  and  C_14 
REMARK    6  A    between atoms: O_6  and  C_15 
REMARK    7  A    between atoms: O_10  and  C_19 
REMARK    8  A    between atoms: O_11  and  C_20 
REMARK    9  A    between atoms: C_13  and  C_17 
REMARK   10  A    between atoms: C_18  and  C_19 
REMARK   11  A    between atoms: C_19  and  C_20 
ROOT
HETATM    1  O   UNL     1      46.584  44.185  54.136  1.00  0.00    -0.328 OA
HETATM    2  C   UNL     1      45.031  43.614  55.937  1.00  0.00     0.168 C 
HETATM    3  C   UNL     1      45.669  44.751  55.111  1.00  0.00     0.166 C 
HETATM    4  C   UNL     1      44.366  42.590  54.998  1.00  0.00     0.172 C 
HETATM    5  C   UNL     1      45.320  42.115  53.900  1.00  0.00     0.197 C 
HETATM    6  C   UNL     1      45.945  43.330  53.193  1.00  0.00     0.266 C 
ENDROOT
BRANCH   6   7
HETATM    7  O   UNL     1      44.938  44.030  52.450  1.00  0.00    -0.326 OA
BRANCH   7   8
HETATM    8  C   UNL     1      45.169  43.942  51.041  1.00  0.00     0.177 C 
BRANCH   8   9
HETATM    9  C   UNL     1      43.871  43.618  50.301  1.00  0.00     0.170 C 
BRANCH   9  10
HETATM   10  O   UNL     1      43.689  42.195  50.242  1.00  0.00    -0.380 OA
HETATM   11  H   UNL     1      42.715  42.085  50.249  1.00  0.00     0.211 HD
ENDBRANCH   9  10
BRANCH   9  12
HETATM   12  C   UNL     1      43.887  44.172  48.873  1.00  0.00     0.169 C 
BRANCH  12  13
HETATM   13  O   UNL     1      42.637  43.866  48.241  1.00  0.00    -0.380 OA
HETATM   14  H   UNL     1      42.772  42.964  47.885  1.00  0.00     0.211 HD
ENDBRANCH  12  13
ENDBRANCH   9  12
ENDBRANCH   8   9
ENDBRANCH   7   8
ENDBRANCH   6   7
BRANCH   5  15
HETATM   15  O   UNL     1      44.639  41.287  52.940  1.00  0.00    -0.378 OA
HETATM   16  H   UNL     1      44.309  41.899  52.254  1.00  0.00     0.211 HD
ENDBRANCH   5  15
BRANCH   3  17
HETATM   17  C   UNL     1      46.491  45.741  55.929  1.00  0.00     0.178 C 
BRANCH  17  18
HETATM   18  S   UNL     1      45.496  47.021  56.644  1.00  0.00     0.118 S 
HETATM   19  O   UNL     1      46.360  48.193  56.528  1.00  0.00    -0.594 OA
HETATM   20  O   UNL     1      45.268  46.562  58.012  1.00  0.00    -0.594 OA
HETATM   21  O   UNL     1      44.313  47.040  55.791  1.00  0.00    -0.594 OA
ENDBRANCH  17  18
ENDBRANCH   3  17
BRANCH   4  22
HETATM   22  O   UNL     1      43.909  41.477  55.790  1.00  0.00    -0.380 OA
HETATM   23  H   UNL     1      44.666  41.290  56.384  1.00  0.00     0.211 HD
ENDBRANCH   4  22
BRANCH   2  24
HETATM   24  O   UNL     1      43.999  43.994  56.854  1.00  0.00    -0.380 OA
HETATM   25  H   UNL     1      44.241  43.705  57.771  1.00  0.00     0.211 HD
ENDBRANCH   2  24
TORSDOF 11
ENDMDL
