MODEL 1
REMARK VINA RESULT:    -5.711      0.000      0.000
REMARK INTER + INTRA:          -9.923
REMARK INTER:                  -8.382
REMARK INTRA:                  -1.541
REMARK UNBOUND:                -1.374
REMARK  11 active torsions:
REMARK  status: ('A' for Active; 'I' for Inactive)
REMARK    1  A    between atoms: S_1  and  C_17 
REMARK    2  A    between atoms: O_3  and  C_16 
REMARK    3  A    between atoms: O_3  and  C_18 
REMARK    4  A    between atoms: O_4  and  C_12 
REMARK    5  A    between atoms: O_5  and  C_14 
REMARK    6  A    between atoms: O_6  and  C_15 
REMARK    7  A    between atoms: O_10  and  C_19 
REMARK    8  A    between atoms: O_11  and  C_20 
REMARK    9  A    between atoms: C_13  and  C_17 
REMARK   10  A    between atoms: C_18  and  C_19 
REMARK   11  A    between atoms: C_19  and  C_20 
ROOT
HETATM    1  O   UNL     1      45.153  41.752  51.711  1.00  0.00    -0.328 OA
HETATM    2  C   UNL     1      47.469  42.537  51.770  1.00  0.00     0.168 C 
HETATM    3  C   UNL     1      46.090  42.669  51.088  1.00  0.00     0.166 C 
HETATM    4  C   UNL     1      47.325  42.748  53.289  1.00  0.00     0.172 C 
HETATM    5  C   UNL     1      46.234  41.862  53.891  1.00  0.00     0.197 C 
HETATM    6  C   UNL     1      44.931  42.025  53.091  1.00  0.00     0.266 C 
ENDROOT
BRANCH   6   7
HETATM    7  O   UNL     1      44.404  43.345  53.285  1.00  0.00    -0.326 OA
BRANCH   7   8
HETATM    8  C   UNL     1      42.979  43.365  53.157  1.00  0.00     0.177 C 
BRANCH   8   9
HETATM    9  C   UNL     1      42.560  44.153  51.916  1.00  0.00     0.170 C 
BRANCH   9  10
HETATM   10  O   UNL     1      42.714  43.333  50.747  1.00  0.00    -0.380 OA
HETATM   11  H   UNL     1      43.490  42.772  50.959  1.00  0.00     0.211 HD
ENDBRANCH   9  10
BRANCH   9  12
HETATM   12  C   UNL     1      43.407  45.418  51.745  1.00  0.00     0.169 C 
BRANCH  12  13
HETATM   13  O   UNL     1      43.350  46.183  52.956  1.00  0.00    -0.380 OA
HETATM   14  H   UNL     1      44.049  46.859  52.836  1.00  0.00     0.211 HD
ENDBRANCH  12  13
ENDBRANCH   9  12
ENDBRANCH   8   9
ENDBRANCH   7   8
ENDBRANCH   6   7
BRANCH   5  15
HETATM   15  O   UNL     1      46.003  42.186  55.274  1.00  0.00    -0.378 OA
HETATM   16  H   UNL     1      45.052  42.398  55.338  1.00  0.00     0.211 HD
ENDBRANCH   5  15
BRANCH   3  17
HETATM   17  C   UNL     1      46.087  42.324  49.602  1.00  0.00     0.178 C 
BRANCH  17  18
HETATM   18  S   UNL     1      46.049  43.764  48.571  1.00  0.00     0.118 S 
HETATM   19  O   UNL     1      47.172  44.546  49.082  1.00  0.00    -0.594 OA
HETATM   20  O   UNL     1      44.733  44.343  48.830  1.00  0.00    -0.594 OA
HETATM   21  O   UNL     1      46.236  43.220  47.231  1.00  0.00    -0.594 OA
ENDBRANCH  17  18
ENDBRANCH   3  17
BRANCH   4  22
HETATM   22  O   UNL     1      48.599  42.478  53.908  1.00  0.00    -0.380 OA
HETATM   23  H   UNL     1      48.529  41.537  54.175  1.00  0.00     0.211 HD
ENDBRANCH   4  22
BRANCH   2  24
HETATM   24  O   UNL     1      48.474  43.472  51.364  1.00  0.00    -0.380 OA
HETATM   25  H   UNL     1      49.311  43.307  51.869  1.00  0.00     0.211 HD
ENDBRANCH   2  24
TORSDOF 11
ENDMDL
MODEL 2
REMARK VINA RESULT:    -5.685      2.261      4.574
REMARK INTER + INTRA:          -9.884
REMARK INTER:                  -8.652
REMARK INTRA:                  -1.233
REMARK UNBOUND:                -1.374
REMARK  11 active torsions:
REMARK  status: ('A' for Active; 'I' for Inactive)
REMARK    1  A    between atoms: S_1  and  C_17 
REMARK    2  A    between atoms: O_3  and  C_16 
REMARK    3  A    between atoms: O_3  and  C_18 
REMARK    4  A    between atoms: O_4  and  C_12 
REMARK    5  A    between atoms: O_5  and  C_14 
REMARK    6  A    between atoms: O_6  and  C_15 
REMARK    7  A    between atoms: O_10  and  C_19 
REMARK    8  A    between atoms: O_11  and  C_20 
REMARK    9  A    between atoms: C_13  and  C_17 
REMARK   10  A    between atoms: C_18  and  C_19 
REMARK   11  A    between atoms: C_19  and  C_20 
ROOT
HETATM    1  O   UNL     1      46.955  44.249  49.847  1.00  0.00    -0.328 OA
HETATM    2  C   UNL     1      47.463  42.255  51.169  1.00  0.00     0.168 C 
HETATM    3  C   UNL     1      46.527  43.470  50.995  1.00  0.00     0.166 C 
HETATM    4  C   UNL     1      47.517  41.440  49.863  1.00  0.00     0.172 C 
HETATM    5  C   UNL     1      47.838  42.319  48.652  1.00  0.00     0.197 C 
HETATM    6  C   UNL     1      46.889  43.528  48.620  1.00  0.00     0.266 C 
ENDROOT
BRANCH   6   7
HETATM    7  O   UNL     1      45.552  43.090  48.342  1.00  0.00    -0.326 OA
BRANCH   7   8
HETATM    8  C   UNL     1      44.764  44.139  47.772  1.00  0.00     0.177 C 
BRANCH   8   9
HETATM    9  C   UNL     1      43.318  44.054  48.260  1.00  0.00     0.170 C 
BRANCH   9  10
HETATM   10  O   UNL     1      42.502  44.975  47.520  1.00  0.00    -0.380 OA
HETATM   11  H   UNL     1      42.990  45.822  47.588  1.00  0.00     0.211 HD
ENDBRANCH   9  10
BRANCH   9  12
HETATM   12  C   UNL     1      43.211  44.389  49.751  1.00  0.00     0.169 C 
BRANCH  12  13
HETATM   13  O   UNL     1      42.668  43.257  50.444  1.00  0.00    -0.380 OA
HETATM   14  H   UNL     1      43.173  43.234  51.282  1.00  0.00     0.211 HD
ENDBRANCH  12  13
ENDBRANCH   9  12
ENDBRANCH   8   9
ENDBRANCH   7   8
ENDBRANCH   6   7
BRANCH   5  15
HETATM   15  O   UNL     1      47.725  41.575  47.425  1.00  0.00    -0.378 OA
HETATM   16  H   UNL     1      47.604  42.244  46.724  1.00  0.00     0.211 HD
ENDBRANCH   5  15
BRANCH   3  17
HETATM   17  C   UNL     1      46.520  44.435  52.176  1.00  0.00     0.178 C 
BRANCH  17  18
HETATM   18  S   UNL     1      45.400  43.935  53.453  1.00  0.00     0.118 S 
HETATM   19  O   UNL     1      44.488  43.044  52.741  1.00  0.00    -0.594 OA
HETATM   20  O   UNL     1      44.802  45.190  53.903  1.00  0.00    -0.594 OA
HETATM   21  O   UNL     1      46.270  43.280  54.423  1.00  0.00    -0.594 OA
ENDBRANCH  17  18
ENDBRANCH   3  17
BRANCH   4  22
HETATM   22  O   UNL     1      48.504  40.402  50.014  1.00  0.00    -0.380 OA
HETATM   23  H   UNL     1      48.908  40.594  50.887  1.00  0.00     0.211 HD
ENDBRANCH   4  22
BRANCH   2  24
HETATM   24  O   UNL     1      47.097  41.307  52.177  1.00  0.00    -0.380 OA
HETATM   25  H   UNL     1      46.713  40.496  51.754  1.00  0.00     0.211 HD
ENDBRANCH   2  24
TORSDOF 11
ENDMDL
MODEL 3
REMARK VINA RESULT:    -5.579      2.533      5.566
REMARK INTER + INTRA:          -9.725
REMARK INTER:                  -8.296
REMARK INTRA:                  -1.430
REMARK UNBOUND:                -1.374
REMARK  11 active torsions:
REMARK  status: ('A' for Active; 'I' for Inactive)
REMARK    1  A    between atoms: S_1  and  C_17 
REMARK    2  A    between atoms: O_3  and  C_16 
REMARK    3  A    between atoms: O_3  and  C_18 
REMARK    4  A    between atoms: O_4  and  C_12 
REMARK    5  A    between atoms: O_5  and  C_14 
REMARK    6  A    between atoms: O_6  and  C_15 
REMARK    7  A    between atoms: O_10  and  C_19 
REMARK    8  A    between atoms: O_11  and  C_20 
REMARK    9  A    between atoms: C_13  and  C_17 
REMARK   10  A    between atoms: C_18  and  C_19 
REMARK   11  A    between atoms: C_19  and  C_20 
ROOT
HETATM    1  O   UNL     1      45.668  43.073  52.273  1.00  0.00    -0.328 OA
HETATM    2  C   UNL     1      43.661  44.107  53.215  1.00  0.00     0.168 C 
HETATM    3  C   UNL     1      45.192  44.206  53.048  1.00  0.00     0.166 C 
HETATM    4  C   UNL     1      42.988  43.985  51.835  1.00  0.00     0.172 C 
HETATM    5  C   UNL     1      43.605  42.867  50.993  1.00  0.00     0.197 C 
HETATM    6  C   UNL     1      45.134  43.030  50.953  1.00  0.00     0.266 C 
ENDROOT
BRANCH   6   7
HETATM    7  O   UNL     1      45.478  44.207  50.210  1.00  0.00    -0.326 OA
BRANCH   7   8
HETATM    8  C   UNL     1      46.699  44.032  49.485  1.00  0.00     0.177 C 
BRANCH   8   9
HETATM    9  C   UNL     1      46.603  42.827  48.550  1.00  0.00     0.170 C 
BRANCH   9  10
HETATM   10  O   UNL     1      47.912  42.278  48.331  1.00  0.00    -0.380 OA
HETATM   11  H   UNL     1      48.204  42.014  49.229  1.00  0.00     0.211 HD
ENDBRANCH   9  10
BRANCH   9  12
HETATM   12  C   UNL     1      46.000  43.216  47.196  1.00  0.00     0.169 C 
BRANCH  12  13
HETATM   13  O   UNL     1      44.668  43.704  47.404  1.00  0.00    -0.380 OA
HETATM   14  H   UNL     1      44.324  43.139  48.127  1.00  0.00     0.211 HD
ENDBRANCH  12  13
ENDBRANCH   9  12
ENDBRANCH   8   9
ENDBRANCH   7   8
ENDBRANCH   6   7
BRANCH   5  15
HETATM   15  O   UNL     1      43.078  42.872  49.654  1.00  0.00    -0.378 OA
HETATM   16  H   UNL     1      43.825  43.128  49.079  1.00  0.00     0.211 HD
ENDBRANCH   5  15
BRANCH   3  17
HETATM   17  C   UNL     1      45.974  44.173  54.358  1.00  0.00     0.178 C 
BRANCH  17  18
HETATM   18  S   UNL     1      46.137  45.778  55.089  1.00  0.00     0.118 S 
HETATM   19  O   UNL     1      45.102  45.761  56.120  1.00  0.00    -0.594 OA
HETATM   20  O   UNL     1      45.881  46.694  53.981  1.00  0.00    -0.594 OA
HETATM   21  O   UNL     1      47.506  45.778  55.592  1.00  0.00    -0.594 OA
ENDBRANCH  17  18
ENDBRANCH   3  17
BRANCH   4  22
HETATM   22  O   UNL     1      41.580  43.752  52.036  1.00  0.00    -0.380 OA
HETATM   23  H   UNL     1      41.159  44.562  51.677  1.00  0.00     0.211 HD
ENDBRANCH   4  22
BRANCH   2  24
HETATM   24  O   UNL     1      43.015  45.221  53.841  1.00  0.00    -0.380 OA
HETATM   25  H   UNL     1      42.525  44.916  54.648  1.00  0.00     0.211 HD
ENDBRANCH   2  24
TORSDOF 11
ENDMDL
MODEL 4
REMARK VINA RESULT:    -5.312      2.322      5.878
REMARK INTER + INTRA:          -9.326
REMARK INTER:                  -7.952
REMARK INTRA:                  -1.374
REMARK UNBOUND:                -1.374
REMARK  11 active torsions:
REMARK  status: ('A' for Active; 'I' for Inactive)
REMARK    1  A    between atoms: S_1  and  C_17 
REMARK    2  A    between atoms: O_3  and  C_16 
REMARK    3  A    between atoms: O_3  and  C_18 
REMARK    4  A    between atoms: O_4  and  C_12 
REMARK    5  A    between atoms: O_5  and  C_14 
REMARK    6  A    between atoms: O_6  and  C_15 
REMARK    7  A    between atoms: O_10  and  C_19 
REMARK    8  A    between atoms: O_11  and  C_20 
REMARK    9  A    between atoms: C_13  and  C_17 
REMARK   10  A    between atoms: C_18  and  C_19 
REMARK   11  A    between atoms: C_19  and  C_20 
ROOT
HETATM    1  O   UNL     1      44.440  42.004  51.981  1.00  0.00    -0.328 OA
HETATM    2  C   UNL     1      43.143  44.077  51.921  1.00  0.00     0.168 C 
HETATM    3  C   UNL     1      44.152  43.222  52.717  1.00  0.00     0.166 C 
HETATM    4  C   UNL     1      43.676  44.333  50.499  1.00  0.00     0.172 C 
HETATM    5  C   UNL     1      44.096  43.038  49.802  1.00  0.00     0.197 C 
HETATM    6  C   UNL     1      45.045  42.241  50.713  1.00  0.00     0.266 C 
ENDROOT
BRANCH   6   7
HETATM    7  O   UNL     1      46.289  42.940  50.850  1.00  0.00    -0.326 OA
BRANCH   7   8
HETATM    8  C   UNL     1      47.401  42.104  50.514  1.00  0.00     0.177 C 
BRANCH   8   9
HETATM    9  C   UNL     1      48.109  42.624  49.264  1.00  0.00     0.170 C 
BRANCH   9  10
HETATM   10  O   UNL     1      47.620  43.935  48.940  1.00  0.00    -0.380 OA
HETATM   11  H   UNL     1      48.197  44.221  48.201  1.00  0.00     0.211 HD
ENDBRANCH   9  10
BRANCH   9  12
HETATM   12  C   UNL     1      47.877  41.701  48.064  1.00  0.00     0.169 C 
BRANCH  12  13
HETATM   13  O   UNL     1      47.023  42.367  47.124  1.00  0.00    -0.380 OA
HETATM   14  H   UNL     1      46.284  41.738  46.996  1.00  0.00     0.211 HD
ENDBRANCH  12  13
ENDBRANCH   9  12
ENDBRANCH   8   9
ENDBRANCH   7   8
ENDBRANCH   6   7
BRANCH   5  15
HETATM   15  O   UNL     1      44.740  43.309  48.544  1.00  0.00    -0.378 OA
HETATM   16  H   UNL     1      44.887  42.437  48.131  1.00  0.00     0.211 HD
ENDBRANCH   5  15
BRANCH   3  17
HETATM   17  C   UNL     1      43.657  42.775  54.089  1.00  0.00     0.178 C 
BRANCH  17  18
HETATM   18  S   UNL     1      44.369  43.718  55.407  1.00  0.00     0.118 S 
HETATM   19  O   UNL     1      45.776  43.787  55.022  1.00  0.00    -0.594 OA
HETATM   20  O   UNL     1      44.098  42.914  56.596  1.00  0.00    -0.594 OA
HETATM   21  O   UNL     1      43.648  44.985  55.338  1.00  0.00    -0.594 OA
ENDBRANCH  17  18
ENDBRANCH   3  17
BRANCH   4  22
HETATM   22  O   UNL     1      42.651  45.008  49.744  1.00  0.00    -0.380 OA
HETATM   23  H   UNL     1      42.757  44.647  48.838  1.00  0.00     0.211 HD
ENDBRANCH   4  22
BRANCH   2  24
HETATM   24  O   UNL     1      42.856  45.378  52.445  1.00  0.00    -0.380 OA
HETATM   25  H   UNL     1      41.985  45.698  52.095  1.00  0.00     0.211 HD
ENDBRANCH   2  24
TORSDOF 11
ENDMDL
MODEL 5
REMARK VINA RESULT:    -5.145      2.128      4.085
REMARK INTER + INTRA:          -9.076
REMARK INTER:                  -7.650
REMARK INTRA:                  -1.427
REMARK UNBOUND:                -1.374
REMARK  11 active torsions:
REMARK  status: ('A' for Active; 'I' for Inactive)
REMARK    1  A    between atoms: S_1  and  C_17 
REMARK    2  A    between atoms: O_3  and  C_16 
REMARK    3  A    between atoms: O_3  and  C_18 
REMARK    4  A    between atoms: O_4  and  C_12 
REMARK    5  A    between atoms: O_5  and  C_14 
REMARK    6  A    between atoms: O_6  and  C_15 
REMARK    7  A    between atoms: O_10  and  C_19 
REMARK    8  A    between atoms: O_11  and  C_20 
REMARK    9  A    between atoms: C_13  and  C_17 
REMARK   10  A    between atoms: C_18  and  C_19 
REMARK   11  A    between atoms: C_19  and  C_20 
ROOT
HETATM    1  O   UNL     1      46.335  44.543  51.443  1.00  0.00    -0.328 OA
HETATM    2  C   UNL     1      44.861  44.123  49.536  1.00  0.00     0.168 C 
HETATM    3  C   UNL     1      46.056  43.608  50.368  1.00  0.00     0.166 C 
HETATM    4  C   UNL     1      43.651  44.377  50.455  1.00  0.00     0.172 C 
HETATM    5  C   UNL     1      44.015  45.257  51.652  1.00  0.00     0.197 C 
HETATM    6  C   UNL     1      45.255  44.685  52.361  1.00  0.00     0.266 C 
ENDROOT
BRANCH   6   7
HETATM    7  O   UNL     1      44.927  43.435  52.981  1.00  0.00    -0.326 OA
BRANCH   7   8
HETATM    8  C   UNL     1      45.517  43.322  54.279  1.00  0.00     0.177 C 
BRANCH   8   9
HETATM    9  C   UNL     1      45.387  44.637  55.047  1.00  0.00     0.170 C 
BRANCH   9  10
HETATM   10  O   UNL     1      46.534  44.820  55.892  1.00  0.00    -0.380 OA
HETATM   11  H   UNL     1      47.284  44.536  55.328  1.00  0.00     0.211 HD
ENDBRANCH   9  10
BRANCH   9  12
HETATM   12  C   UNL     1      44.127  44.654  55.918  1.00  0.00     0.169 C 
BRANCH  12  13
HETATM   13  O   UNL     1      43.062  44.008  55.208  1.00  0.00    -0.380 OA
HETATM   14  H   UNL     1      43.091  44.421  54.321  1.00  0.00     0.211 HD
ENDBRANCH  12  13
ENDBRANCH   9  12
ENDBRANCH   8   9
ENDBRANCH   7   8
ENDBRANCH   6   7
BRANCH   5  15
HETATM   15  O   UNL     1      42.920  45.351  52.582  1.00  0.00    -0.378 OA
HETATM   16  H   UNL     1      42.122  45.116  52.071  1.00  0.00     0.211 HD
ENDBRANCH   5  15
BRANCH   3  17
HETATM   17  C   UNL     1      47.357  43.471  49.585  1.00  0.00     0.178 C 
BRANCH  17  18
HETATM   18  S   UNL     1      47.417  41.986  48.622  1.00  0.00     0.118 S 
HETATM   19  O   UNL     1      46.467  41.122  49.318  1.00  0.00    -0.594 OA
HETATM   20  O   UNL     1      48.812  41.564  48.718  1.00  0.00    -0.594 OA
HETATM   21  O   UNL     1      46.992  42.428  47.299  1.00  0.00    -0.594 OA
ENDBRANCH  17  18
ENDBRANCH   3  17
BRANCH   4  22
HETATM   22  O   UNL     1      42.607  44.989  49.673  1.00  0.00    -0.380 OA
HETATM   23  H   UNL     1      41.784  44.680  50.107  1.00  0.00     0.211 HD
ENDBRANCH   4  22
BRANCH   2  24
HETATM   24  O   UNL     1      44.370  43.247  48.517  1.00  0.00    -0.380 OA
HETATM   25  H   UNL     1      44.254  42.333  48.885  1.00  0.00     0.211 HD
ENDBRANCH   2  24
TORSDOF 11
ENDMDL
MODEL 6
REMARK VINA RESULT:    -5.044      1.751      4.271
REMARK INTER + INTRA:          -8.924
REMARK INTER:                  -7.398
REMARK INTRA:                  -1.527
REMARK UNBOUND:                -1.374
REMARK  11 active torsions:
REMARK  status: ('A' for Active; 'I' for Inactive)
REMARK    1  A    between atoms: S_1  and  C_17 
REMARK    2  A    between atoms: O_3  and  C_16 
REMARK    3  A    between atoms: O_3  and  C_18 
REMARK    4  A    between atoms: O_4  and  C_12 
REMARK    5  A    between atoms: O_5  and  C_14 
REMARK    6  A    between atoms: O_6  and  C_15 
REMARK    7  A    between atoms: O_10  and  C_19 
REMARK    8  A    between atoms: O_11  and  C_20 
REMARK    9  A    between atoms: C_13  and  C_17 
REMARK   10  A    between atoms: C_18  and  C_19 
REMARK   11  A    between atoms: C_19  and  C_20 
ROOT
HETATM    1  O   UNL     1      46.310  44.786  51.818  1.00  0.00    -0.328 OA
HETATM    2  C   UNL     1      44.843  44.295  49.923  1.00  0.00     0.168 C 
HETATM    3  C   UNL     1      46.073  43.843  50.739  1.00  0.00     0.166 C 
HETATM    4  C   UNL     1      43.630  44.474  50.855  1.00  0.00     0.172 C 
HETATM    5  C   UNL     1      43.956  45.365  52.055  1.00  0.00     0.197 C 
HETATM    6  C   UNL     1      45.233  44.860  52.747  1.00  0.00     0.266 C 
ENDROOT
BRANCH   6   7
HETATM    7  O   UNL     1      44.983  43.589  53.361  1.00  0.00    -0.326 OA
BRANCH   7   8
HETATM    8  C   UNL     1      45.479  43.547  54.703  1.00  0.00     0.177 C 
BRANCH   8   9
HETATM    9  C   UNL     1      46.707  42.642  54.795  1.00  0.00     0.170 C 
BRANCH   9  10
HETATM   10  O   UNL     1      47.795  43.225  54.061  1.00  0.00    -0.380 OA
HETATM   11  H   UNL     1      48.518  42.571  54.161  1.00  0.00     0.211 HD
ENDBRANCH   9  10
BRANCH   9  12
HETATM   12  C   UNL     1      46.420  41.249  54.226  1.00  0.00     0.169 C 
BRANCH  12  13
HETATM   13  O   UNL     1      46.759  41.236  52.834  1.00  0.00    -0.380 OA
HETATM   14  H   UNL     1      46.646  42.169  52.559  1.00  0.00     0.211 HD
ENDBRANCH  12  13
ENDBRANCH   9  12
ENDBRANCH   8   9
ENDBRANCH   7   8
ENDBRANCH   6   7
BRANCH   5  15
HETATM   15  O   UNL     1      42.867  45.390  52.996  1.00  0.00    -0.378 OA
HETATM   16  H   UNL     1      42.059  45.500  52.459  1.00  0.00     0.211 HD
ENDBRANCH   5  15
BRANCH   3  17
HETATM   17  C   UNL     1      47.373  43.786  49.941  1.00  0.00     0.178 C 
BRANCH  17  18
HETATM   18  S   UNL     1      47.527  42.293  49.002  1.00  0.00     0.118 S 
HETATM   19  O   UNL     1      47.038  42.696  47.686  1.00  0.00    -0.594 OA
HETATM   20  O   UNL     1      46.668  41.346  49.710  1.00  0.00    -0.594 OA
HETATM   21  O   UNL     1      48.955  42.003  49.067  1.00  0.00    -0.594 OA
ENDBRANCH  17  18
ENDBRANCH   3  17
BRANCH   4  22
HETATM   22  O   UNL     1      42.545  45.030  50.088  1.00  0.00    -0.380 OA
HETATM   23  H   UNL     1      42.677  44.650  49.194  1.00  0.00     0.211 HD
ENDBRANCH   4  22
BRANCH   2  24
HETATM   24  O   UNL     1      44.392  43.400  48.902  1.00  0.00    -0.380 OA
HETATM   25  H   UNL     1      43.540  42.973  49.180  1.00  0.00     0.211 HD
ENDBRANCH   2  24
TORSDOF 11
ENDMDL
MODEL 7
REMARK VINA RESULT:    -4.988      1.807      4.071
REMARK INTER + INTRA:          -8.841
REMARK INTER:                  -7.611
REMARK INTRA:                  -1.230
REMARK UNBOUND:                -1.374
REMARK  11 active torsions:
REMARK  status: ('A' for Active; 'I' for Inactive)
REMARK    1  A    between atoms: S_1  and  C_17 
REMARK    2  A    between atoms: O_3  and  C_16 
REMARK    3  A    between atoms: O_3  and  C_18 
REMARK    4  A    between atoms: O_4  and  C_12 
REMARK    5  A    between atoms: O_5  and  C_14 
REMARK    6  A    between atoms: O_6  and  C_15 
REMARK    7  A    between atoms: O_10  and  C_19 
REMARK    8  A    between atoms: O_11  and  C_20 
REMARK    9  A    between atoms: C_13  and  C_17 
REMARK   10  A    between atoms: C_18  and  C_19 
REMARK   11  A    between atoms: C_19  and  C_20 
ROOT
HETATM    1  O   UNL     1      45.988  43.713  51.411  1.00  0.00    -0.328 OA
HETATM    2  C   UNL     1      43.758  43.583  50.414  1.00  0.00     0.168 C 
HETATM    3  C   UNL     1      45.233  43.138  50.312  1.00  0.00     0.166 C 
HETATM    4  C   UNL     1      43.193  43.220  51.800  1.00  0.00     0.172 C 
HETATM    5  C   UNL     1      44.086  43.726  52.934  1.00  0.00     0.197 C 
HETATM    6  C   UNL     1      45.538  43.280  52.691  1.00  0.00     0.266 C 
ENDROOT
BRANCH   6   7
HETATM    7  O   UNL     1      45.638  41.856  52.827  1.00  0.00    -0.326 OA
BRANCH   7   8
HETATM    8  C   UNL     1      46.710  41.486  53.700  1.00  0.00     0.177 C 
BRANCH   8   9
HETATM    9  C   UNL     1      46.173  40.778  54.944  1.00  0.00     0.170 C 
BRANCH   9  10
HETATM   10  O   UNL     1      44.761  40.558  54.803  1.00  0.00    -0.380 OA
HETATM   11  H   UNL     1      44.665  39.590  54.924  1.00  0.00     0.211 HD
ENDBRANCH   9  10
BRANCH   9  12
HETATM   12  C   UNL     1      46.419  41.606  56.209  1.00  0.00     0.169 C 
BRANCH  12  13
HETATM   13  O   UNL     1      45.564  42.756  56.186  1.00  0.00    -0.380 OA
HETATM   14  H   UNL     1      45.383  42.930  57.132  1.00  0.00     0.211 HD
ENDBRANCH  12  13
ENDBRANCH   9  12
ENDBRANCH   8   9
ENDBRANCH   7   8
ENDBRANCH   6   7
BRANCH   5  15
HETATM   15  O   UNL     1      43.633  43.241  54.211  1.00  0.00    -0.378 OA
HETATM   16  H   UNL     1      42.713  42.946  54.067  1.00  0.00     0.211 HD
ENDBRANCH   5  15
BRANCH   3  17
HETATM   17  C   UNL     1      45.941  43.587  49.038  1.00  0.00     0.178 C 
BRANCH  17  18
HETATM   18  S   UNL     1      47.247  42.489  48.565  1.00  0.00     0.118 S 
HETATM   19  O   UNL     1      48.435  43.186  49.052  1.00  0.00    -0.594 OA
HETATM   20  O   UNL     1      47.133  42.418  47.110  1.00  0.00    -0.594 OA
HETATM   21  O   UNL     1      46.922  41.257  49.274  1.00  0.00    -0.594 OA
ENDBRANCH  17  18
ENDBRANCH   3  17
BRANCH   4  22
HETATM   22  O   UNL     1      41.868  43.774  51.910  1.00  0.00    -0.380 OA
HETATM   23  H   UNL     1      42.011  44.622  52.382  1.00  0.00     0.211 HD
ENDBRANCH   4  22
BRANCH   2  24
HETATM   24  O   UNL     1      42.848  42.991  49.481  1.00  0.00    -0.380 OA
HETATM   25  H   UNL     1      42.188  42.429  49.963  1.00  0.00     0.211 HD
ENDBRANCH   2  24
TORSDOF 11
ENDMDL
MODEL 8
REMARK VINA RESULT:    -4.929      2.088      5.384
REMARK INTER + INTRA:          -8.752
REMARK INTER:                  -7.678
REMARK INTRA:                  -1.074
REMARK UNBOUND:                -1.374
REMARK  11 active torsions:
REMARK  status: ('A' for Active; 'I' for Inactive)
REMARK    1  A    between atoms: S_1  and  C_17 
REMARK    2  A    between atoms: O_3  and  C_16 
REMARK    3  A    between atoms: O_3  and  C_18 
REMARK    4  A    between atoms: O_4  and  C_12 
REMARK    5  A    between atoms: O_5  and  C_14 
REMARK    6  A    between atoms: O_6  and  C_15 
REMARK    7  A    between atoms: O_10  and  C_19 
REMARK    8  A    between atoms: O_11  and  C_20 
REMARK    9  A    between atoms: C_13  and  C_17 
REMARK   10  A    between atoms: C_18  and  C_19 
REMARK   11  A    between atoms: C_19  and  C_20 
ROOT
HETATM    1  O   UNL     1      45.011  41.721  52.514  1.00  0.00    -0.328 OA
HETATM    2  C   UNL     1      44.039  43.703  53.569  1.00  0.00     0.168 C 
HETATM    3  C   UNL     1      45.303  42.833  53.400  1.00  0.00     0.166 C 
HETATM    4  C   UNL     1      43.515  44.142  52.189  1.00  0.00     0.172 C 
HETATM    5  C   UNL     1      43.346  42.958  51.236  1.00  0.00     0.197 C 
HETATM    6  C   UNL     1      44.641  42.129  51.200  1.00  0.00     0.266 C 
ENDROOT
BRANCH   6   7
HETATM    7  O   UNL     1      45.686  42.887  50.574  1.00  0.00    -0.326 OA
BRANCH   7   8
HETATM    8  C   UNL     1      46.638  42.035  49.931  1.00  0.00     0.177 C 
BRANCH   8   9
HETATM    9  C   UNL     1      47.403  42.801  48.851  1.00  0.00     0.170 C 
BRANCH   9  10
HETATM   10  O   UNL     1      48.530  43.470  49.438  1.00  0.00    -0.380 OA
HETATM   11  H   UNL     1      48.693  42.966  50.263  1.00  0.00     0.211 HD
ENDBRANCH   9  10
BRANCH   9  12
HETATM   12  C   UNL     1      46.513  43.844  48.168  1.00  0.00     0.169 C 
BRANCH  12  13
HETATM   13  O   UNL     1      45.275  43.224  47.793  1.00  0.00    -0.380 OA
HETATM   14  H   UNL     1      45.389  42.293  48.072  1.00  0.00     0.211 HD
ENDBRANCH  12  13
ENDBRANCH   9  12
ENDBRANCH   8   9
ENDBRANCH   7   8
ENDBRANCH   6   7
BRANCH   5  15
HETATM   15  O   UNL     1      43.013  43.401  49.908  1.00  0.00    -0.378 OA
HETATM   16  H   UNL     1      42.515  42.665  49.503  1.00  0.00     0.211 HD
ENDBRANCH   5  15
BRANCH   3  17
HETATM   17  C   UNL     1      45.819  42.212  54.694  1.00  0.00     0.178 C 
BRANCH  17  18
HETATM   18  S   UNL     1      47.522  42.592  54.997  1.00  0.00     0.118 S 
HETATM   19  O   UNL     1      47.455  43.961  55.500  1.00  0.00    -0.594 OA
HETATM   20  O   UNL     1      48.149  42.452  53.685  1.00  0.00    -0.594 OA
HETATM   21  O   UNL     1      47.917  41.592  55.983  1.00  0.00    -0.594 OA
ENDBRANCH  17  18
ENDBRANCH   3  17
BRANCH   4  22
HETATM   22  O   UNL     1      42.261  44.827  52.376  1.00  0.00    -0.380 OA
HETATM   23  H   UNL     1      41.811  44.723  51.511  1.00  0.00     0.211 HD
ENDBRANCH   4  22
BRANCH   2  24
HETATM   24  O   UNL     1      44.196  44.919  54.306  1.00  0.00    -0.380 OA
HETATM   25  H   UNL     1      44.228  44.723  55.278  1.00  0.00     0.211 HD
ENDBRANCH   2  24
TORSDOF 11
ENDMDL
MODEL 9
REMARK VINA RESULT:    -4.688      2.633      5.003
REMARK INTER + INTRA:          -8.392
REMARK INTER:                  -6.857
REMARK INTRA:                  -1.536
REMARK UNBOUND:                -1.374
REMARK  11 active torsions:
REMARK  status: ('A' for Active; 'I' for Inactive)
REMARK    1  A    between atoms: S_1  and  C_17 
REMARK    2  A    between atoms: O_3  and  C_16 
REMARK    3  A    between atoms: O_3  and  C_18 
REMARK    4  A    between atoms: O_4  and  C_12 
REMARK    5  A    between atoms: O_5  and  C_14 
REMARK    6  A    between atoms: O_6  and  C_15 
REMARK    7  A    between atoms: O_10  and  C_19 
REMARK    8  A    between atoms: O_11  and  C_20 
REMARK    9  A    between atoms: C_13  and  C_17 
REMARK   10  A    between atoms: C_18  and  C_19 
REMARK   11  A    between atoms: C_19  and  C_20 
ROOT
HETATM    1  O   UNL     1      44.024  45.410  52.768  1.00  0.00    -0.328 OA
HETATM    2  C   UNL     1      45.976  44.620  51.521  1.00  0.00     0.168 C 
HETATM    3  C   UNL     1      45.377  44.903  52.916  1.00  0.00     0.166 C 
HETATM    4  C   UNL     1      45.050  43.674  50.734  1.00  0.00     0.172 C 
HETATM    5  C   UNL     1      43.604  44.172  50.712  1.00  0.00     0.197 C 
HETATM    6  C   UNL     1      43.140  44.483  52.145  1.00  0.00     0.266 C 
ENDROOT
BRANCH   6   7
HETATM    7  O   UNL     1      43.040  43.268  52.899  1.00  0.00    -0.326 OA
BRANCH   7   8
HETATM    8  C   UNL     1      42.237  43.441  54.070  1.00  0.00     0.177 C 
BRANCH   8   9
HETATM    9  C   UNL     1      42.746  42.556  55.208  1.00  0.00     0.170 C 
BRANCH   9  10
HETATM   10  O   UNL     1      43.534  43.341  56.117  1.00  0.00    -0.380 OA
HETATM   11  H   UNL     1      43.160  44.242  56.028  1.00  0.00     0.211 HD
ENDBRANCH   9  10
BRANCH   9  12
HETATM   12  C   UNL     1      43.605  41.403  54.680  1.00  0.00     0.169 C 
BRANCH  12  13
HETATM   13  O   UNL     1      44.954  41.863  54.522  1.00  0.00    -0.380 OA
HETATM   14  H   UNL     1      44.851  42.741  54.101  1.00  0.00     0.211 HD
ENDBRANCH  12  13
ENDBRANCH   9  12
ENDBRANCH   8   9
ENDBRANCH   7   8
ENDBRANCH   6   7
BRANCH   5  15
HETATM   15  O   UNL     1      42.727  43.199  50.115  1.00  0.00    -0.378 OA
HETATM   16  H   UNL     1      41.992  43.086  50.747  1.00  0.00     0.211 HD
ENDBRANCH   5  15
BRANCH   3  17
HETATM   17  C   UNL     1      46.131  45.953  53.725  1.00  0.00     0.178 C 
BRANCH  17  18
HETATM   18  S   UNL     1      46.367  45.469  55.412  1.00  0.00     0.118 S 
HETATM   19  O   UNL     1      46.466  44.015  55.311  1.00  0.00    -0.594 OA
HETATM   20  O   UNL     1      45.166  45.956  56.086  1.00  0.00    -0.594 OA
HETATM   21  O   UNL     1      47.605  46.146  55.783  1.00  0.00    -0.594 OA
ENDBRANCH  17  18
ENDBRANCH   3  17
BRANCH   4  22
HETATM   22  O   UNL     1      45.564  43.547  49.394  1.00  0.00    -0.380 OA
HETATM   23  H   UNL     1      46.528  43.692  49.502  1.00  0.00     0.211 HD
ENDBRANCH   4  22
BRANCH   2  24
HETATM   24  O   UNL     1      47.258  43.986  51.495  1.00  0.00    -0.380 OA
HETATM   25  H   UNL     1      47.186  43.100  51.054  1.00  0.00     0.211 HD
ENDBRANCH   2  24
TORSDOF 11
ENDMDL
MODEL 10
REMARK VINA RESULT:    -4.667     17.305     18.890
REMARK INTER + INTRA:          -8.361
REMARK INTER:                  -7.070
REMARK INTRA:                  -1.291
REMARK UNBOUND:                -1.374
REMARK  11 active torsions:
REMARK  status: ('A' for Active; 'I' for Inactive)
REMARK    1  A    between atoms: S_1  and  C_17 
REMARK    2  A    between atoms: O_3  and  C_16 
REMARK    3  A    between atoms: O_3  and  C_18 
REMARK    4  A    between atoms: O_4  and  C_12 
REMARK    5  A    between atoms: O_5  and  C_14 
REMARK    6  A    between atoms: O_6  and  C_15 
REMARK    7  A    between atoms: O_10  and  C_19 
REMARK    8  A    between atoms: O_11  and  C_20 
REMARK    9  A    between atoms: C_13  and  C_17 
REMARK   10  A    between atoms: C_18  and  C_19 
REMARK   11  A    between atoms: C_19  and  C_20 
ROOT
HETATM    1  O   UNL     1      45.354  24.200  49.609  1.00  0.00    -0.328 OA
HETATM    2  C   UNL     1      43.688  25.895  49.031  1.00  0.00     0.168 C 
HETATM    3  C   UNL     1      43.927  24.448  49.510  1.00  0.00     0.166 C 
HETATM    4  C   UNL     1      44.417  26.884  49.960  1.00  0.00     0.172 C 
HETATM    5  C   UNL     1      45.889  26.514  50.149  1.00  0.00     0.197 C 
HETATM    6  C   UNL     1      46.006  25.036  50.559  1.00  0.00     0.266 C 
ENDROOT
BRANCH   6   7
HETATM    7  O   UNL     1      45.467  24.853  51.875  1.00  0.00    -0.326 OA
BRANCH   7   8
HETATM    8  C   UNL     1      46.352  24.094  52.704  1.00  0.00     0.177 C 
BRANCH   8   9
HETATM    9  C   UNL     1      47.136  25.013  53.640  1.00  0.00     0.170 C 
BRANCH   9  10
HETATM   10  O   UNL     1      46.534  26.316  53.655  1.00  0.00    -0.380 OA
HETATM   11  H   UNL     1      45.598  26.141  53.421  1.00  0.00     0.211 HD
ENDBRANCH   9  10
BRANCH   9  12
HETATM   12  C   UNL     1      48.596  25.150  53.196  1.00  0.00     0.169 C 
BRANCH  12  13
HETATM   13  O   UNL     1      48.706  26.261  52.298  1.00  0.00    -0.380 OA
HETATM   14  H   UNL     1      49.164  25.884  51.518  1.00  0.00     0.211 HD
ENDBRANCH  12  13
ENDBRANCH   9  12
ENDBRANCH   8   9
ENDBRANCH   7   8
ENDBRANCH   6   7
BRANCH   5  15
HETATM   15  O   UNL     1      46.512  27.348  51.143  1.00  0.00    -0.378 OA
HETATM   16  H   UNL     1      45.904  27.346  51.906  1.00  0.00     0.211 HD
ENDBRANCH   5  15
BRANCH   3  17
HETATM   17  C   UNL     1      43.380  23.375  48.573  1.00  0.00     0.178 C 
BRANCH  17  18
HETATM   18  S   UNL     1      41.746  22.856  49.015  1.00  0.00     0.118 S 
HETATM   19  O   UNL     1      40.907  23.802  48.284  1.00  0.00    -0.594 OA
HETATM   20  O   UNL     1      41.714  23.006  50.468  1.00  0.00    -0.594 OA
HETATM   21  O   UNL     1      41.690  21.481  48.532  1.00  0.00    -0.594 OA
ENDBRANCH  17  18
ENDBRANCH   3  17
BRANCH   4  22
HETATM   22  O   UNL     1      44.292  28.207  49.404  1.00  0.00    -0.380 OA
HETATM   23  H   UNL     1      44.277  28.788  50.194  1.00  0.00     0.211 HD
ENDBRANCH   4  22
BRANCH   2  24
HETATM   24  O   UNL     1      42.329  26.345  49.011  1.00  0.00    -0.380 OA
HETATM   25  H   UNL     1      42.277  27.276  49.350  1.00  0.00     0.211 HD
ENDBRANCH   2  24
TORSDOF 11
ENDMDL
