MODEL 1
REMARK VINA RESULT:    -5.738      0.000      0.000
REMARK INTER + INTRA:          -9.831
REMARK INTER:                  -8.589
REMARK INTRA:                  -1.242
REMARK UNBOUND:                -1.242
REMARK  11 active torsions:
REMARK  status: ('A' for Active; 'I' for Inactive)
REMARK    1  A    between atoms: S_1  and  C_17 
REMARK    2  A    between atoms: O_3  and  C_16 
REMARK    3  A    between atoms: O_3  and  C_18 
REMARK    4  A    between atoms: O_4  and  C_12 
REMARK    5  A    between atoms: O_5  and  C_14 
REMARK    6  A    between atoms: O_6  and  C_15 
REMARK    7  A    between atoms: O_10  and  C_19 
REMARK    8  A    between atoms: O_11  and  C_20 
REMARK    9  A    between atoms: C_13  and  C_17 
REMARK   10  A    between atoms: C_18  and  C_19 
REMARK   11  A    between atoms: C_19  and  C_20 
ROOT
HETATM    1  O   UNL     1      44.013  40.661  45.758  1.00  0.00    -0.328 OA
HETATM    2  C   UNL     1      46.148  40.355  46.914  1.00  0.00     0.168 C 
HETATM    3  C   UNL     1      45.337  40.078  45.630  1.00  0.00     0.166 C 
HETATM    4  C   UNL     1      46.171  41.867  47.205  1.00  0.00     0.172 C 
HETATM    5  C   UNL     1      44.767  42.474  47.200  1.00  0.00     0.197 C 
HETATM    6  C   UNL     1      44.034  42.077  45.908  1.00  0.00     0.266 C 
ENDROOT
BRANCH   6   7
HETATM    7  O   UNL     1      44.653  42.714  44.782  1.00  0.00    -0.326 OA
BRANCH   7   8
HETATM    8  C   UNL     1      43.707  42.975  43.741  1.00  0.00     0.177 C 
BRANCH   8   9
HETATM    9  C   UNL     1      43.966  44.342  43.108  1.00  0.00     0.170 C 
BRANCH   9  10
HETATM   10  O   UNL     1      45.147  44.283  42.294  1.00  0.00    -0.380 OA
HETATM   11  H   UNL     1      45.772  44.886  42.748  1.00  0.00     0.211 HD
ENDBRANCH   9  10
BRANCH   9  12
HETATM   12  C   UNL     1      44.157  45.426  44.174  1.00  0.00     0.169 C 
BRANCH  12  13
HETATM   13  O   UNL     1      43.070  45.357  45.106  1.00  0.00    -0.380 OA
HETATM   14  H   UNL     1      43.512  45.207  45.967  1.00  0.00     0.211 HD
ENDBRANCH  12  13
ENDBRANCH   9  12
ENDBRANCH   8   9
ENDBRANCH   7   8
ENDBRANCH   6   7
BRANCH   5  15
HETATM   15  O   UNL     1      44.819  43.908  47.312  1.00  0.00    -0.378 OA
HETATM   16  H   UNL     1      45.305  44.215  46.523  1.00  0.00     0.211 HD
ENDBRANCH   5  15
BRANCH   3  17
HETATM   17  C   UNL     1      45.115  38.599  45.330  1.00  0.00     0.178 C 
BRANCH  17  18
HETATM   18  S   UNL     1      46.224  37.983  44.094  1.00  0.00     0.118 S 
HETATM   19  O   UNL     1      47.447  37.749  44.857  1.00  0.00    -0.594 OA
HETATM   20  O   UNL     1      46.306  39.074  43.126  1.00  0.00    -0.594 OA
HETATM   21  O   UNL     1      45.555  36.778  43.616  1.00  0.00    -0.594 OA
ENDBRANCH  17  18
ENDBRANCH   3  17
BRANCH   4  22
HETATM   22  O   UNL     1      46.810  42.074  48.480  1.00  0.00    -0.380 OA
HETATM   23  H   UNL     1      47.348  42.882  48.339  1.00  0.00     0.211 HD
ENDBRANCH   4  22
BRANCH   2  24
HETATM   24  O   UNL     1      47.524  39.963  46.896  1.00  0.00    -0.380 OA
HETATM   25  H   UNL     1      48.031  40.544  46.271  1.00  0.00     0.211 HD
ENDBRANCH   2  24
TORSDOF 11
ENDMDL
MODEL 2
REMARK VINA RESULT:    -5.194      1.676      2.785
REMARK INTER + INTRA:          -9.017
REMARK INTER:                  -7.770
REMARK INTRA:                  -1.247
REMARK UNBOUND:                -1.242
REMARK  11 active torsions:
REMARK  status: ('A' for Active; 'I' for Inactive)
REMARK    1  A    between atoms: S_1  and  C_17 
REMARK    2  A    between atoms: O_3  and  C_16 
REMARK    3  A    between atoms: O_3  and  C_18 
REMARK    4  A    between atoms: O_4  and  C_12 
REMARK    5  A    between atoms: O_5  and  C_14 
REMARK    6  A    between atoms: O_6  and  C_15 
REMARK    7  A    between atoms: O_10  and  C_19 
REMARK    8  A    between atoms: O_11  and  C_20 
REMARK    9  A    between atoms: C_13  and  C_17 
REMARK   10  A    between atoms: C_18  and  C_19 
REMARK   11  A    between atoms: C_19  and  C_20 
ROOT
HETATM    1  O   UNL     1      43.740  40.507  45.523  1.00  0.00    -0.328 OA
HETATM    2  C   UNL     1      45.738  39.112  45.315  1.00  0.00     0.168 C 
HETATM    3  C   UNL     1      44.724  40.012  44.577  1.00  0.00     0.166 C 
HETATM    4  C   UNL     1      46.359  39.878  46.498  1.00  0.00     0.172 C 
HETATM    5  C   UNL     1      45.292  40.501  47.400  1.00  0.00     0.197 C 
HETATM    6  C   UNL     1      44.303  41.317  46.550  1.00  0.00     0.266 C 
ENDROOT
BRANCH   6   7
HETATM    7  O   UNL     1      44.963  42.468  46.007  1.00  0.00    -0.326 OA
BRANCH   7   8
HETATM    8  C   UNL     1      44.294  43.678  46.374  1.00  0.00     0.177 C 
BRANCH   8   9
HETATM    9  C   UNL     1      44.029  44.542  45.141  1.00  0.00     0.170 C 
BRANCH   9  10
HETATM   10  O   UNL     1      42.906  45.403  45.386  1.00  0.00    -0.380 OA
HETATM   11  H   UNL     1      42.480  45.008  46.175  1.00  0.00     0.211 HD
ENDBRANCH   9  10
BRANCH   9  12
HETATM   12  C   UNL     1      43.731  43.682  43.909  1.00  0.00     0.169 C 
BRANCH  12  13
HETATM   13  O   UNL     1      44.957  43.427  43.212  1.00  0.00    -0.380 OA
HETATM   14  H   UNL     1      44.776  43.740  42.302  1.00  0.00     0.211 HD
ENDBRANCH  12  13
ENDBRANCH   9  12
ENDBRANCH   8   9
ENDBRANCH   7   8
ENDBRANCH   6   7
BRANCH   5  15
HETATM   15  O   UNL     1      45.887  41.345  48.403  1.00  0.00    -0.378 OA
HETATM   16  H   UNL     1      45.153  41.610  48.991  1.00  0.00     0.211 HD
ENDBRANCH   5  15
BRANCH   3  17
HETATM   17  C   UNL     1      43.933  39.304  43.482  1.00  0.00     0.178 C 
BRANCH  17  18
HETATM   18  S   UNL     1      44.520  39.698  41.858  1.00  0.00     0.118 S 
HETATM   19  O   UNL     1      44.310  41.142  41.790  1.00  0.00    -0.594 OA
HETATM   20  O   UNL     1      43.660  38.912  40.977  1.00  0.00    -0.594 OA
HETATM   21  O   UNL     1      45.916  39.280  41.898  1.00  0.00    -0.594 OA
ENDBRANCH  17  18
ENDBRANCH   3  17
BRANCH   4  22
HETATM   22  O   UNL     1      47.188  38.967  47.245  1.00  0.00    -0.380 OA
HETATM   23  H   UNL     1      47.737  39.559  47.802  1.00  0.00     0.211 HD
ENDBRANCH   4  22
BRANCH   2  24
HETATM   24  O   UNL     1      46.857  38.651  44.550  1.00  0.00    -0.380 OA
HETATM   25  H   UNL     1      46.715  38.855  43.589  1.00  0.00     0.211 HD
ENDBRANCH   2  24
TORSDOF 11
ENDMDL
MODEL 3
REMARK VINA RESULT:    -5.065     10.420     12.018
REMARK INTER + INTRA:          -8.824
REMARK INTER:                  -6.979
REMARK INTRA:                  -1.845
REMARK UNBOUND:                -1.242
REMARK  11 active torsions:
REMARK  status: ('A' for Active; 'I' for Inactive)
REMARK    1  A    between atoms: S_1  and  C_17 
REMARK    2  A    between atoms: O_3  and  C_16 
REMARK    3  A    between atoms: O_3  and  C_18 
REMARK    4  A    between atoms: O_4  and  C_12 
REMARK    5  A    between atoms: O_5  and  C_14 
REMARK    6  A    between atoms: O_6  and  C_15 
REMARK    7  A    between atoms: O_10  and  C_19 
REMARK    8  A    between atoms: O_11  and  C_20 
REMARK    9  A    between atoms: C_13  and  C_17 
REMARK   10  A    between atoms: C_18  and  C_19 
REMARK   11  A    between atoms: C_19  and  C_20 
ROOT
HETATM    1  O   UNL     1      37.538  42.712  55.237  1.00  0.00    -0.328 OA
HETATM    2  C   UNL     1      39.357  44.030  54.271  1.00  0.00     0.168 C 
HETATM    3  C   UNL     1      38.347  42.885  54.044  1.00  0.00     0.166 C 
HETATM    4  C   UNL     1      38.615  45.311  54.697  1.00  0.00     0.172 C 
HETATM    5  C   UNL     1      37.668  45.060  55.873  1.00  0.00     0.197 C 
HETATM    6  C   UNL     1      36.759  43.859  55.561  1.00  0.00     0.266 C 
ENDROOT
BRANCH   6   7
HETATM    7  O   UNL     1      35.855  44.196  54.500  1.00  0.00    -0.326 OA
BRANCH   7   8
HETATM    8  C   UNL     1      34.578  43.578  54.682  1.00  0.00     0.177 C 
BRANCH   8   9
HETATM    9  C   UNL     1      34.291  42.589  53.552  1.00  0.00     0.170 C 
BRANCH   9  10
HETATM   10  O   UNL     1      35.152  41.446  53.680  1.00  0.00    -0.380 OA
HETATM   11  H   UNL     1      35.756  41.526  52.912  1.00  0.00     0.211 HD
ENDBRANCH   9  10
BRANCH   9  12
HETATM   12  C   UNL     1      34.520  43.227  52.178  1.00  0.00     0.169 C 
BRANCH  12  13
HETATM   13  O   UNL     1      35.881  43.009  51.785  1.00  0.00    -0.380 OA
HETATM   14  H   UNL     1      36.002  43.611  51.023  1.00  0.00     0.211 HD
ENDBRANCH  12  13
ENDBRANCH   9  12
ENDBRANCH   8   9
ENDBRANCH   7   8
ENDBRANCH   6   7
BRANCH   5  15
HETATM   15  O   UNL     1      36.866  46.222  56.152  1.00  0.00    -0.378 OA
HETATM   16  H   UNL     1      37.239  46.608  56.968  1.00  0.00     0.211 HD
ENDBRANCH   5  15
BRANCH   3  17
HETATM   17  C   UNL     1      38.984  41.527  53.770  1.00  0.00     0.178 C 
BRANCH  17  18
HETATM   18  S   UNL     1      38.708  40.970  52.112  1.00  0.00     0.118 S 
HETATM   19  O   UNL     1      39.637  39.849  51.997  1.00  0.00    -0.594 OA
HETATM   20  O   UNL     1      39.047  42.132  51.294  1.00  0.00    -0.594 OA
HETATM   21  O   UNL     1      37.296  40.603  52.114  1.00  0.00    -0.594 OA
ENDBRANCH  17  18
ENDBRANCH   3  17
BRANCH   4  22
HETATM   22  O   UNL     1      39.593  46.312  55.037  1.00  0.00    -0.380 OA
HETATM   23  H   UNL     1      40.056  45.929  55.812  1.00  0.00     0.211 HD
ENDBRANCH   4  22
BRANCH   2  24
HETATM   24  O   UNL     1      40.142  44.421  53.140  1.00  0.00    -0.380 OA
HETATM   25  H   UNL     1      39.958  43.816  52.376  1.00  0.00     0.211 HD
ENDBRANCH   2  24
TORSDOF 11
ENDMDL
MODEL 4
REMARK VINA RESULT:    -4.987      2.151      3.441
REMARK INTER + INTRA:          -8.707
REMARK INTER:                  -7.928
REMARK INTRA:                  -0.779
REMARK UNBOUND:                -1.242
REMARK  11 active torsions:
REMARK  status: ('A' for Active; 'I' for Inactive)
REMARK    1  A    between atoms: S_1  and  C_17 
REMARK    2  A    between atoms: O_3  and  C_16 
REMARK    3  A    between atoms: O_3  and  C_18 
REMARK    4  A    between atoms: O_4  and  C_12 
REMARK    5  A    between atoms: O_5  and  C_14 
REMARK    6  A    between atoms: O_6  and  C_15 
REMARK    7  A    between atoms: O_10  and  C_19 
REMARK    8  A    between atoms: O_11  and  C_20 
REMARK    9  A    between atoms: C_13  and  C_17 
REMARK   10  A    between atoms: C_18  and  C_19 
REMARK   11  A    between atoms: C_19  and  C_20 
ROOT
HETATM    1  O   UNL     1      44.364  39.025  43.995  1.00  0.00    -0.328 OA
HETATM    2  C   UNL     1      46.385  37.739  44.488  1.00  0.00     0.168 C 
HETATM    3  C   UNL     1      45.651  38.622  43.457  1.00  0.00     0.166 C 
HETATM    4  C   UNL     1      46.489  38.478  45.836  1.00  0.00     0.172 C 
HETATM    5  C   UNL     1      45.134  39.007  46.306  1.00  0.00     0.197 C 
HETATM    6  C   UNL     1      44.469  39.813  45.177  1.00  0.00     0.266 C 
ENDROOT
BRANCH   6   7
HETATM    7  O   UNL     1      45.209  41.018  44.940  1.00  0.00    -0.326 OA
BRANCH   7   8
HETATM    8  C   UNL     1      44.362  42.170  44.982  1.00  0.00     0.177 C 
BRANCH   8   9
HETATM    9  C   UNL     1      44.796  43.118  46.100  1.00  0.00     0.170 C 
BRANCH   9  10
HETATM   10  O   UNL     1      44.365  42.601  47.368  1.00  0.00    -0.380 OA
HETATM   11  H   UNL     1      45.155  42.698  47.939  1.00  0.00     0.211 HD
ENDBRANCH   9  10
BRANCH   9  12
HETATM   12  C   UNL     1      44.201  44.517  45.911  1.00  0.00     0.169 C 
BRANCH  12  13
HETATM   13  O   UNL     1      44.011  45.119  47.198  1.00  0.00    -0.380 OA
HETATM   14  H   UNL     1      44.875  44.996  47.641  1.00  0.00     0.211 HD
ENDBRANCH  12  13
ENDBRANCH   9  12
ENDBRANCH   8   9
ENDBRANCH   7   8
ENDBRANCH   6   7
BRANCH   5  15
HETATM   15  O   UNL     1      45.274  39.831  47.478  1.00  0.00    -0.378 OA
HETATM   16  H   UNL     1      46.235  39.957  47.596  1.00  0.00     0.211 HD
ENDBRANCH   5  15
BRANCH   3  17
HETATM   17  C   UNL     1      45.352  37.929  42.132  1.00  0.00     0.178 C 
BRANCH  17  18
HETATM   18  S   UNL     1      45.591  38.997  40.739  1.00  0.00     0.118 S 
HETATM   19  O   UNL     1      46.970  38.709  40.355  1.00  0.00    -0.594 OA
HETATM   20  O   UNL     1      45.374  40.335  41.285  1.00  0.00    -0.594 OA
HETATM   21  O   UNL     1      44.579  38.542  39.792  1.00  0.00    -0.594 OA
ENDBRANCH  17  18
ENDBRANCH   3  17
BRANCH   4  22
HETATM   22  O   UNL     1      47.048  37.574  46.808  1.00  0.00    -0.380 OA
HETATM   23  H   UNL     1      48.015  37.723  46.732  1.00  0.00     0.211 HD
ENDBRANCH   4  22
BRANCH   2  24
HETATM   24  O   UNL     1      47.730  37.368  44.169  1.00  0.00    -0.380 OA
HETATM   25  H   UNL     1      48.339  37.643  44.902  1.00  0.00     0.211 HD
ENDBRANCH   2  24
TORSDOF 11
ENDMDL
MODEL 5
REMARK VINA RESULT:    -4.964      2.632      5.668
REMARK INTER + INTRA:          -8.673
REMARK INTER:                  -7.534
REMARK INTRA:                  -1.139
REMARK UNBOUND:                -1.242
REMARK  11 active torsions:
REMARK  status: ('A' for Active; 'I' for Inactive)
REMARK    1  A    between atoms: S_1  and  C_17 
REMARK    2  A    between atoms: O_3  and  C_16 
REMARK    3  A    between atoms: O_3  and  C_18 
REMARK    4  A    between atoms: O_4  and  C_12 
REMARK    5  A    between atoms: O_5  and  C_14 
REMARK    6  A    between atoms: O_6  and  C_15 
REMARK    7  A    between atoms: O_10  and  C_19 
REMARK    8  A    between atoms: O_11  and  C_20 
REMARK    9  A    between atoms: C_13  and  C_17 
REMARK   10  A    between atoms: C_18  and  C_19 
REMARK   11  A    between atoms: C_19  and  C_20 
ROOT
HETATM    1  O   UNL     1      46.460  40.870  45.702  1.00  0.00    -0.328 OA
HETATM    2  C   UNL     1      46.100  40.362  48.068  1.00  0.00     0.168 C 
HETATM    3  C   UNL     1      45.537  41.052  46.807  1.00  0.00     0.166 C 
HETATM    4  C   UNL     1      46.407  38.883  47.765  1.00  0.00     0.172 C 
HETATM    5  C   UNL     1      47.272  38.721  46.514  1.00  0.00     0.197 C 
HETATM    6  C   UNL     1      46.649  39.504  45.345  1.00  0.00     0.266 C 
ENDROOT
BRANCH   6   7
HETATM    7  O   UNL     1      45.414  38.890  44.953  1.00  0.00    -0.326 OA
BRANCH   7   8
HETATM    8  C   UNL     1      45.386  38.620  43.548  1.00  0.00     0.177 C 
BRANCH   8   9
HETATM    9  C   UNL     1      45.380  37.114  43.288  1.00  0.00     0.170 C 
BRANCH   9  10
HETATM   10  O   UNL     1      45.088  36.862  41.904  1.00  0.00    -0.380 OA
HETATM   11  H   UNL     1      44.715  35.956  41.908  1.00  0.00     0.211 HD
ENDBRANCH   9  10
BRANCH   9  12
HETATM   12  C   UNL     1      44.333  36.401  44.150  1.00  0.00     0.169 C 
BRANCH  12  13
HETATM   13  O   UNL     1      44.933  36.030  45.397  1.00  0.00    -0.380 OA
HETATM   14  H   UNL     1      44.500  36.620  46.047  1.00  0.00     0.211 HD
ENDBRANCH  12  13
ENDBRANCH   9  12
ENDBRANCH   8   9
ENDBRANCH   7   8
ENDBRANCH   6   7
BRANCH   5  15
HETATM   15  O   UNL     1      47.413  37.335  46.153  1.00  0.00    -0.378 OA
HETATM   16  H   UNL     1      47.404  37.315  45.177  1.00  0.00     0.211 HD
ENDBRANCH   5  15
BRANCH   3  17
HETATM   17  C   UNL     1      45.344  42.559  46.947  1.00  0.00     0.178 C 
BRANCH  17  18
HETATM   18  S   UNL     1      43.752  43.094  46.385  1.00  0.00     0.118 S 
HETATM   19  O   UNL     1      43.966  43.268  44.951  1.00  0.00    -0.594 OA
HETATM   20  O   UNL     1      43.520  44.333  47.124  1.00  0.00    -0.594 OA
HETATM   21  O   UNL     1      42.879  41.983  46.748  1.00  0.00    -0.594 OA
ENDBRANCH  17  18
ENDBRANCH   3  17
BRANCH   4  22
HETATM   22  O   UNL     1      47.061  38.310  48.913  1.00  0.00    -0.380 OA
HETATM   23  H   UNL     1      46.887  37.349  48.822  1.00  0.00     0.211 HD
ENDBRANCH   4  22
BRANCH   2  24
HETATM   24  O   UNL     1      45.245  40.332  49.215  1.00  0.00    -0.380 OA
HETATM   25  H   UNL     1      44.519  40.999  49.111  1.00  0.00     0.211 HD
ENDBRANCH   2  24
TORSDOF 11
ENDMDL
MODEL 6
REMARK VINA RESULT:    -4.926      4.084      7.335
REMARK INTER + INTRA:          -8.616
REMARK INTER:                  -6.672
REMARK INTRA:                  -1.944
REMARK UNBOUND:                -1.242
REMARK  11 active torsions:
REMARK  status: ('A' for Active; 'I' for Inactive)
REMARK    1  A    between atoms: S_1  and  C_17 
REMARK    2  A    between atoms: O_3  and  C_16 
REMARK    3  A    between atoms: O_3  and  C_18 
REMARK    4  A    between atoms: O_4  and  C_12 
REMARK    5  A    between atoms: O_5  and  C_14 
REMARK    6  A    between atoms: O_6  and  C_15 
REMARK    7  A    between atoms: O_10  and  C_19 
REMARK    8  A    between atoms: O_11  and  C_20 
REMARK    9  A    between atoms: C_13  and  C_17 
REMARK   10  A    between atoms: C_18  and  C_19 
REMARK   11  A    between atoms: C_19  and  C_20 
ROOT
HETATM    1  O   UNL     1      43.228  38.816  41.666  1.00  0.00    -0.328 OA
HETATM    2  C   UNL     1      45.378  38.988  40.512  1.00  0.00     0.168 C 
HETATM    3  C   UNL     1      44.661  38.668  41.842  1.00  0.00     0.166 C 
HETATM    4  C   UNL     1      44.806  38.111  39.382  1.00  0.00     0.172 C 
HETATM    5  C   UNL     1      43.280  38.187  39.313  1.00  0.00     0.197 C 
HETATM    6  C   UNL     1      42.682  37.918  40.705  1.00  0.00     0.266 C 
ENDROOT
BRANCH   6   7
HETATM    7  O   UNL     1      42.910  36.551  41.075  1.00  0.00    -0.326 OA
BRANCH   7   8
HETATM    8  C   UNL     1      41.822  36.027  41.841  1.00  0.00     0.177 C 
BRANCH   8   9
HETATM    9  C   UNL     1      42.277  35.681  43.259  1.00  0.00     0.170 C 
BRANCH   9  10
HETATM   10  O   UNL     1      42.579  36.887  43.978  1.00  0.00    -0.380 OA
HETATM   11  H   UNL     1      41.911  37.525  43.650  1.00  0.00     0.211 HD
ENDBRANCH   9  10
BRANCH   9  12
HETATM   12  C   UNL     1      43.524  34.790  43.244  1.00  0.00     0.169 C 
BRANCH  12  13
HETATM   13  O   UNL     1      44.688  35.619  43.362  1.00  0.00    -0.380 OA
HETATM   14  H   UNL     1      44.367  36.401  43.856  1.00  0.00     0.211 HD
ENDBRANCH  12  13
ENDBRANCH   9  12
ENDBRANCH   8   9
ENDBRANCH   7   8
ENDBRANCH   6   7
BRANCH   5  15
HETATM   15  O   UNL     1      42.753  37.242  38.364  1.00  0.00    -0.378 OA
HETATM   16  H   UNL     1      43.158  37.478  37.507  1.00  0.00     0.211 HD
ENDBRANCH   5  15
BRANCH   3  17
HETATM   17  C   UNL     1      45.038  39.588  42.999  1.00  0.00     0.178 C 
BRANCH  17  18
HETATM   18  S   UNL     1      45.945  38.747  44.266  1.00  0.00     0.118 S 
HETATM   19  O   UNL     1      46.793  37.839  43.498  1.00  0.00    -0.594 OA
HETATM   20  O   UNL     1      44.908  38.091  45.059  1.00  0.00    -0.594 OA
HETATM   21  O   UNL     1      46.653  39.827  44.943  1.00  0.00    -0.594 OA
ENDBRANCH  17  18
ENDBRANCH   3  17
BRANCH   4  22
HETATM   22  O   UNL     1      45.393  38.535  38.137  1.00  0.00    -0.380 OA
HETATM   23  H   UNL     1      45.157  39.486  38.083  1.00  0.00     0.211 HD
ENDBRANCH   4  22
BRANCH   2  24
HETATM   24  O   UNL     1      46.789  38.758  40.477  1.00  0.00    -0.380 OA
HETATM   25  H   UNL     1      47.125  38.866  39.549  1.00  0.00     0.211 HD
ENDBRANCH   2  24
TORSDOF 11
ENDMDL
MODEL 7
REMARK VINA RESULT:    -4.729     10.527     12.508
REMARK INTER + INTRA:          -8.321
REMARK INTER:                  -7.243
REMARK INTRA:                  -1.078
REMARK UNBOUND:                -1.242
REMARK  11 active torsions:
REMARK  status: ('A' for Active; 'I' for Inactive)
REMARK    1  A    between atoms: S_1  and  C_17 
REMARK    2  A    between atoms: O_3  and  C_16 
REMARK    3  A    between atoms: O_3  and  C_18 
REMARK    4  A    between atoms: O_4  and  C_12 
REMARK    5  A    between atoms: O_5  and  C_14 
REMARK    6  A    between atoms: O_6  and  C_15 
REMARK    7  A    between atoms: O_10  and  C_19 
REMARK    8  A    between atoms: O_11  and  C_20 
REMARK    9  A    between atoms: C_13  and  C_17 
REMARK   10  A    between atoms: C_18  and  C_19 
REMARK   11  A    between atoms: C_19  and  C_20 
ROOT
HETATM    1  O   UNL     1      36.889  42.464  54.748  1.00  0.00    -0.328 OA
HETATM    2  C   UNL     1      37.838  41.606  52.662  1.00  0.00     0.168 C 
HETATM    3  C   UNL     1      36.737  42.478  53.304  1.00  0.00     0.166 C 
HETATM    4  C   UNL     1      39.225  42.079  53.135  1.00  0.00     0.172 C 
HETATM    5  C   UNL     1      39.308  42.182  54.659  1.00  0.00     0.197 C 
HETATM    6  C   UNL     1      38.127  43.014  55.189  1.00  0.00     0.266 C 
ENDROOT
BRANCH   6   7
HETATM    7  O   UNL     1      38.270  44.379  54.775  1.00  0.00    -0.326 OA
BRANCH   7   8
HETATM    8  C   UNL     1      38.101  45.281  55.874  1.00  0.00     0.177 C 
BRANCH   8   9
HETATM    9  C   UNL     1      39.029  46.487  55.729  1.00  0.00     0.170 C 
BRANCH   9  10
HETATM   10  O   UNL     1      39.144  46.846  54.343  1.00  0.00    -0.380 OA
HETATM   11  H   UNL     1      39.636  46.095  53.950  1.00  0.00     0.211 HD
ENDBRANCH   9  10
BRANCH   9  12
HETATM   12  C   UNL     1      40.428  46.186  56.277  1.00  0.00     0.169 C 
BRANCH  12  13
HETATM   13  O   UNL     1      40.398  44.927  56.961  1.00  0.00    -0.380 OA
HETATM   14  H   UNL     1      40.380  45.178  57.908  1.00  0.00     0.211 HD
ENDBRANCH  12  13
ENDBRANCH   9  12
ENDBRANCH   8   9
ENDBRANCH   7   8
ENDBRANCH   6   7
BRANCH   5  15
HETATM   15  O   UNL     1      40.550  42.778  55.075  1.00  0.00    -0.378 OA
HETATM   16  H   UNL     1      41.025  42.078  55.563  1.00  0.00     0.211 HD
ENDBRANCH   5  15
BRANCH   3  17
HETATM   17  C   UNL     1      35.314  42.000  53.029  1.00  0.00     0.178 C 
BRANCH  17  18
HETATM   18  S   UNL     1      34.253  43.309  52.485  1.00  0.00     0.118 S 
HETATM   19  O   UNL     1      35.026  44.502  52.821  1.00  0.00    -0.594 OA
HETATM   20  O   UNL     1      33.039  43.124  53.276  1.00  0.00    -0.594 OA
HETATM   21  O   UNL     1      34.109  43.050  51.057  1.00  0.00    -0.594 OA
ENDBRANCH  17  18
ENDBRANCH   3  17
BRANCH   4  22
HETATM   22  O   UNL     1      40.214  41.159  52.634  1.00  0.00    -0.380 OA
HETATM   23  H   UNL     1      40.985  41.306  53.223  1.00  0.00     0.211 HD
ENDBRANCH   4  22
BRANCH   2  24
HETATM   24  O   UNL     1      37.912  41.622  51.233  1.00  0.00    -0.380 OA
HETATM   25  H   UNL     1      37.008  41.493  50.847  1.00  0.00     0.211 HD
ENDBRANCH   2  24
TORSDOF 11
ENDMDL
MODEL 8
REMARK VINA RESULT:    -4.668      1.622      2.452
REMARK INTER + INTRA:          -8.229
REMARK INTER:                  -7.194
REMARK INTRA:                  -1.036
REMARK UNBOUND:                -1.242
REMARK  11 active torsions:
REMARK  status: ('A' for Active; 'I' for Inactive)
REMARK    1  A    between atoms: S_1  and  C_17 
REMARK    2  A    between atoms: O_3  and  C_16 
REMARK    3  A    between atoms: O_3  and  C_18 
REMARK    4  A    between atoms: O_4  and  C_12 
REMARK    5  A    between atoms: O_5  and  C_14 
REMARK    6  A    between atoms: O_6  and  C_15 
REMARK    7  A    between atoms: O_10  and  C_19 
REMARK    8  A    between atoms: O_11  and  C_20 
REMARK    9  A    between atoms: C_13  and  C_17 
REMARK   10  A    between atoms: C_18  and  C_19 
REMARK   11  A    between atoms: C_19  and  C_20 
ROOT
HETATM    1  O   UNL     1      43.830  39.446  45.774  1.00  0.00    -0.328 OA
HETATM    2  C   UNL     1      45.824  38.156  46.365  1.00  0.00     0.168 C 
HETATM    3  C   UNL     1      44.932  38.680  45.219  1.00  0.00     0.166 C 
HETATM    4  C   UNL     1      46.281  39.328  47.254  1.00  0.00     0.172 C 
HETATM    5  C   UNL     1      45.105  40.194  47.711  1.00  0.00     0.197 C 
HETATM    6  C   UNL     1      44.253  40.599  46.496  1.00  0.00     0.266 C 
ENDROOT
BRANCH   6   7
HETATM    7  O   UNL     1      44.995  41.497  45.660  1.00  0.00    -0.326 OA
BRANCH   7   8
HETATM    8  C   UNL     1      44.248  42.682  45.370  1.00  0.00     0.177 C 
BRANCH   8   9
HETATM    9  C   UNL     1      44.986  43.922  45.876  1.00  0.00     0.170 C 
BRANCH   9  10
HETATM   10  O   UNL     1      44.786  44.059  47.292  1.00  0.00    -0.380 OA
HETATM   11  H   UNL     1      44.371  43.210  47.550  1.00  0.00     0.211 HD
ENDBRANCH   9  10
BRANCH   9  12
HETATM   12  C   UNL     1      44.486  45.193  45.182  1.00  0.00     0.169 C 
BRANCH  12  13
HETATM   13  O   UNL     1      43.056  45.243  45.278  1.00  0.00    -0.380 OA
HETATM   14  H   UNL     1      42.851  44.623  46.008  1.00  0.00     0.211 HD
ENDBRANCH  12  13
ENDBRANCH   9  12
ENDBRANCH   8   9
ENDBRANCH   7   8
ENDBRANCH   6   7
BRANCH   5  15
HETATM   15  O   UNL     1      45.562  41.371  48.402  1.00  0.00    -0.378 OA
HETATM   16  H   UNL     1      45.303  42.123  47.837  1.00  0.00     0.211 HD
ENDBRANCH   5  15
BRANCH   3  17
HETATM   17  C   UNL     1      44.294  37.588  44.366  1.00  0.00     0.178 C 
BRANCH  17  18
HETATM   18  S   UNL     1      45.136  37.349  42.827  1.00  0.00     0.118 S 
HETATM   19  O   UNL     1      45.385  38.720  42.389  1.00  0.00    -0.594 OA
HETATM   20  O   UNL     1      44.173  36.612  42.013  1.00  0.00    -0.594 OA
HETATM   21  O   UNL     1      46.327  36.600  43.211  1.00  0.00    -0.594 OA
ENDBRANCH  17  18
ENDBRANCH   3  17
BRANCH   4  22
HETATM   22  O   UNL     1      46.988  38.790  48.388  1.00  0.00    -0.380 OA
HETATM   23  H   UNL     1      47.209  39.584  48.919  1.00  0.00     0.211 HD
ENDBRANCH   4  22
BRANCH   2  24
HETATM   24  O   UNL     1      47.033  37.494  45.981  1.00  0.00    -0.380 OA
HETATM   25  H   UNL     1      46.917  37.071  45.091  1.00  0.00     0.211 HD
ENDBRANCH   2  24
TORSDOF 11
ENDMDL
MODEL 9
REMARK VINA RESULT:    -4.561     11.010     12.952
REMARK INTER + INTRA:          -8.070
REMARK INTER:                  -6.423
REMARK INTRA:                  -1.646
REMARK UNBOUND:                -1.242
REMARK  11 active torsions:
REMARK  status: ('A' for Active; 'I' for Inactive)
REMARK    1  A    between atoms: S_1  and  C_17 
REMARK    2  A    between atoms: O_3  and  C_16 
REMARK    3  A    between atoms: O_3  and  C_18 
REMARK    4  A    between atoms: O_4  and  C_12 
REMARK    5  A    between atoms: O_5  and  C_14 
REMARK    6  A    between atoms: O_6  and  C_15 
REMARK    7  A    between atoms: O_10  and  C_19 
REMARK    8  A    between atoms: O_11  and  C_20 
REMARK    9  A    between atoms: C_13  and  C_17 
REMARK   10  A    between atoms: C_18  and  C_19 
REMARK   11  A    between atoms: C_19  and  C_20 
ROOT
HETATM    1  O   UNL     1      37.594  44.194  54.201  1.00  0.00    -0.328 OA
HETATM    2  C   UNL     1      35.754  43.308  55.548  1.00  0.00     0.168 C 
HETATM    3  C   UNL     1      36.329  43.485  54.126  1.00  0.00     0.166 C 
HETATM    4  C   UNL     1      36.791  42.615  56.452  1.00  0.00     0.172 C 
HETATM    5  C   UNL     1      38.152  43.312  56.401  1.00  0.00     0.197 C 
HETATM    6  C   UNL     1      38.590  43.493  54.938  1.00  0.00     0.266 C 
ENDROOT
BRANCH   6   7
HETATM    7  O   UNL     1      38.872  42.214  54.353  1.00  0.00    -0.326 OA
BRANCH   7   8
HETATM    8  C   UNL     1      39.813  42.324  53.281  1.00  0.00     0.177 C 
BRANCH   8   9
HETATM    9  C   UNL     1      39.289  41.619  52.030  1.00  0.00     0.170 C 
BRANCH   9  10
HETATM   10  O   UNL     1      38.307  42.444  51.385  1.00  0.00    -0.380 OA
HETATM   11  H   UNL     1      38.809  43.246  51.131  1.00  0.00     0.211 HD
ENDBRANCH   9  10
BRANCH   9  12
HETATM   12  C   UNL     1      38.651  40.270  52.374  1.00  0.00     0.169 C 
BRANCH  12  13
HETATM   13  O   UNL     1      37.242  40.456  52.560  1.00  0.00    -0.380 OA
HETATM   14  H   UNL     1      37.079  40.108  53.461  1.00  0.00     0.211 HD
ENDBRANCH  12  13
ENDBRANCH   9  12
ENDBRANCH   8   9
ENDBRANCH   7   8
ENDBRANCH   6   7
BRANCH   5  15
HETATM   15  O   UNL     1      39.148  42.561  57.120  1.00  0.00    -0.378 OA
HETATM   16  H   UNL     1      39.911  43.163  57.216  1.00  0.00     0.211 HD
ENDBRANCH   5  15
BRANCH   3  17
HETATM   17  C   UNL     1      35.447  44.301  53.186  1.00  0.00     0.178 C 
BRANCH  17  18
HETATM   18  S   UNL     1      34.396  43.283  52.188  1.00  0.00     0.118 S 
HETATM   19  O   UNL     1      34.064  44.170  51.076  1.00  0.00    -0.594 OA
HETATM   20  O   UNL     1      33.277  42.966  53.072  1.00  0.00    -0.594 OA
HETATM   21  O   UNL     1      35.253  42.155  51.843  1.00  0.00    -0.594 OA
ENDBRANCH  17  18
ENDBRANCH   3  17
BRANCH   4  22
HETATM   22  O   UNL     1      36.280  42.596  57.799  1.00  0.00    -0.380 OA
HETATM   23  H   UNL     1      35.544  41.949  57.756  1.00  0.00     0.211 HD
ENDBRANCH   4  22
BRANCH   2  24
HETATM   24  O   UNL     1      34.574  42.507  55.664  1.00  0.00    -0.380 OA
HETATM   25  H   UNL     1      34.507  42.137  56.582  1.00  0.00     0.211 HD
ENDBRANCH   2  24
TORSDOF 11
ENDMDL
MODEL 10
REMARK VINA RESULT:    -4.396      3.678      6.509
REMARK INTER + INTRA:          -7.823
REMARK INTER:                  -6.462
REMARK INTRA:                  -1.361
REMARK UNBOUND:                -1.242
REMARK  11 active torsions:
REMARK  status: ('A' for Active; 'I' for Inactive)
REMARK    1  A    between atoms: S_1  and  C_17 
REMARK    2  A    between atoms: O_3  and  C_16 
REMARK    3  A    between atoms: O_3  and  C_18 
REMARK    4  A    between atoms: O_4  and  C_12 
REMARK    5  A    between atoms: O_5  and  C_14 
REMARK    6  A    between atoms: O_6  and  C_15 
REMARK    7  A    between atoms: O_10  and  C_19 
REMARK    8  A    between atoms: O_11  and  C_20 
REMARK    9  A    between atoms: C_13  and  C_17 
REMARK   10  A    between atoms: C_18  and  C_19 
REMARK   11  A    between atoms: C_19  and  C_20 
ROOT
HETATM    1  O   UNL     1      45.401  37.222  43.337  1.00  0.00    -0.328 OA
HETATM    2  C   UNL     1      44.299  39.392  43.583  1.00  0.00     0.168 C 
HETATM    3  C   UNL     1      45.448  38.479  44.062  1.00  0.00     0.166 C 
HETATM    4  C   UNL     1      44.367  39.565  42.054  1.00  0.00     0.172 C 
HETATM    5  C   UNL     1      44.453  38.221  41.328  1.00  0.00     0.197 C 
HETATM    6  C   UNL     1      45.585  37.374  41.933  1.00  0.00     0.266 C 
ENDROOT
BRANCH   6   7
HETATM    7  O   UNL     1      46.853  37.973  41.633  1.00  0.00    -0.326 OA
BRANCH   7   8
HETATM    8  C   UNL     1      47.716  37.059  40.949  1.00  0.00     0.177 C 
BRANCH   8   9
HETATM    9  C   UNL     1      48.225  37.671  39.644  1.00  0.00     0.170 C 
BRANCH   9  10
HETATM   10  O   UNL     1      47.721  39.009  39.509  1.00  0.00    -0.380 OA
HETATM   11  H   UNL     1      46.770  38.921  39.726  1.00  0.00     0.211 HD
ENDBRANCH   9  10
BRANCH   9  12
HETATM   12  C   UNL     1      47.779  36.852  38.429  1.00  0.00     0.169 C 
BRANCH  12  13
HETATM   13  O   UNL     1      46.397  37.127  38.165  1.00  0.00    -0.380 OA
HETATM   14  H   UNL     1      46.209  37.916  38.714  1.00  0.00     0.211 HD
ENDBRANCH  12  13
ENDBRANCH   9  12
ENDBRANCH   8   9
ENDBRANCH   7   8
ENDBRANCH   6   7
BRANCH   5  15
HETATM   15  O   UNL     1      44.678  38.404  39.919  1.00  0.00    -0.378 OA
HETATM   16  H   UNL     1      44.819  39.362  39.798  1.00  0.00     0.211 HD
ENDBRANCH   5  15
BRANCH   3  17
HETATM   17  C   UNL     1      45.387  38.112  45.541  1.00  0.00     0.178 C 
BRANCH  17  18
HETATM   18  S   UNL     1      46.170  39.319  46.573  1.00  0.00     0.118 S 
HETATM   19  O   UNL     1      45.030  40.038  47.137  1.00  0.00    -0.594 OA
HETATM   20  O   UNL     1      46.984  40.097  45.643  1.00  0.00    -0.594 OA
HETATM   21  O   UNL     1      46.920  38.509  47.526  1.00  0.00    -0.594 OA
ENDBRANCH  17  18
ENDBRANCH   3  17
BRANCH   4  22
HETATM   22  O   UNL     1      43.203  40.300  41.628  1.00  0.00    -0.380 OA
HETATM   23  H   UNL     1      42.730  39.666  41.049  1.00  0.00     0.211 HD
ENDBRANCH   4  22
BRANCH   2  24
HETATM   24  O   UNL     1      44.285  40.725  44.103  1.00  0.00    -0.380 OA
HETATM   25  H   UNL     1      44.597  40.724  45.044  1.00  0.00     0.211 HD
ENDBRANCH   2  24
TORSDOF 11
ENDMDL
