MODEL 1
REMARK VINA RESULT:    -5.746      0.000      0.000
REMARK INTER + INTRA:          -9.343
REMARK INTER:                  -8.602
REMARK INTRA:                  -0.741
REMARK UNBOUND:                -0.741
REMARK  11 active torsions:
REMARK  status: ('A' for Active; 'I' for Inactive)
REMARK    1  A    between atoms: S_1  and  C_17 
REMARK    2  A    between atoms: O_3  and  C_16 
REMARK    3  A    between atoms: O_3  and  C_18 
REMARK    4  A    between atoms: O_4  and  C_12 
REMARK    5  A    between atoms: O_5  and  C_14 
REMARK    6  A    between atoms: O_6  and  C_15 
REMARK    7  A    between atoms: O_10  and  C_19 
REMARK    8  A    between atoms: O_11  and  C_20 
REMARK    9  A    between atoms: C_13  and  C_17 
REMARK   10  A    between atoms: C_18  and  C_19 
REMARK   11  A    between atoms: C_19  and  C_20 
ROOT
HETATM    1  O   UNL     1      44.113  40.303  45.594  1.00  0.00    -0.328 OA
HETATM    2  C   UNL     1      46.136  39.936  46.919  1.00  0.00     0.168 C 
HETATM    3  C   UNL     1      45.436  39.707  45.563  1.00  0.00     0.166 C 
HETATM    4  C   UNL     1      46.151  41.439  47.256  1.00  0.00     0.172 C 
HETATM    5  C   UNL     1      44.760  42.065  47.148  1.00  0.00     0.197 C 
HETATM    6  C   UNL     1      44.136  41.715  45.786  1.00  0.00     0.266 C 
ENDROOT
BRANCH   6   7
HETATM    7  O   UNL     1      44.858  42.374  44.737  1.00  0.00    -0.326 OA
BRANCH   7   8
HETATM    8  C   UNL     1      44.064  42.500  43.553  1.00  0.00     0.177 C 
BRANCH   8   9
HETATM    9  C   UNL     1      44.037  43.951  43.074  1.00  0.00     0.170 C 
BRANCH   9  10
HETATM   10  O   UNL     1      45.229  44.237  42.326  1.00  0.00    -0.380 OA
HETATM   11  H   UNL     1      45.403  45.182  42.519  1.00  0.00     0.211 HD
ENDBRANCH   9  10
BRANCH   9  12
HETATM   12  C   UNL     1      43.949  44.928  44.251  1.00  0.00     0.169 C 
BRANCH  12  13
HETATM   13  O   UNL     1      43.935  46.268  43.743  1.00  0.00    -0.380 OA
HETATM   14  H   UNL     1      44.836  46.599  43.938  1.00  0.00     0.211 HD
ENDBRANCH  12  13
ENDBRANCH   9  12
ENDBRANCH   8   9
ENDBRANCH   7   8
ENDBRANCH   6   7
BRANCH   5  15
HETATM   15  O   UNL     1      44.818  43.494  47.306  1.00  0.00    -0.378 OA
HETATM   16  H   UNL     1      45.692  43.761  46.960  1.00  0.00     0.211 HD
ENDBRANCH   5  15
BRANCH   3  17
HETATM   17  C   UNL     1      45.225  38.239  45.202  1.00  0.00     0.178 C 
BRANCH  17  18
HETATM   18  S   UNL     1      46.426  37.645  44.045  1.00  0.00     0.118 S 
HETATM   19  O   UNL     1      45.816  36.408  43.566  1.00  0.00    -0.594 OA
HETATM   20  O   UNL     1      47.628  37.461  44.855  1.00  0.00    -0.594 OA
HETATM   21  O   UNL     1      46.500  38.718  43.059  1.00  0.00    -0.594 OA
ENDBRANCH  17  18
ENDBRANCH   3  17
BRANCH   4  22
HETATM   22  O   UNL     1      46.680  41.601  48.586  1.00  0.00    -0.380 OA
HETATM   23  H   UNL     1      46.433  42.520  48.822  1.00  0.00     0.211 HD
ENDBRANCH   4  22
BRANCH   2  24
HETATM   24  O   UNL     1      47.505  39.526  47.008  1.00  0.00    -0.380 OA
HETATM   25  H   UNL     1      47.879  39.789  47.889  1.00  0.00     0.211 HD
ENDBRANCH   2  24
TORSDOF 11
ENDMDL
MODEL 2
REMARK VINA RESULT:    -5.555      1.708      2.346
REMARK INTER + INTRA:          -9.057
REMARK INTER:                  -7.951
REMARK INTRA:                  -1.106
REMARK UNBOUND:                -0.741
REMARK  11 active torsions:
REMARK  status: ('A' for Active; 'I' for Inactive)
REMARK    1  A    between atoms: S_1  and  C_17 
REMARK    2  A    between atoms: O_3  and  C_16 
REMARK    3  A    between atoms: O_3  and  C_18 
REMARK    4  A    between atoms: O_4  and  C_12 
REMARK    5  A    between atoms: O_5  and  C_14 
REMARK    6  A    between atoms: O_6  and  C_15 
REMARK    7  A    between atoms: O_10  and  C_19 
REMARK    8  A    between atoms: O_11  and  C_20 
REMARK    9  A    between atoms: C_13  and  C_17 
REMARK   10  A    between atoms: C_18  and  C_19 
REMARK   11  A    between atoms: C_19  and  C_20 
ROOT
HETATM    1  O   UNL     1      43.969  40.414  45.242  1.00  0.00    -0.328 OA
HETATM    2  C   UNL     1      45.844  38.843  45.271  1.00  0.00     0.168 C 
HETATM    3  C   UNL     1      44.977  39.785  44.408  1.00  0.00     0.166 C 
HETATM    4  C   UNL     1      46.434  39.618  46.464  1.00  0.00     0.172 C 
HETATM    5  C   UNL     1      45.359  40.379  47.242  1.00  0.00     0.197 C 
HETATM    6  C   UNL     1      44.519  41.228  46.273  1.00  0.00     0.266 C 
ENDROOT
BRANCH   6   7
HETATM    7  O   UNL     1      45.322  42.287  45.733  1.00  0.00    -0.326 OA
BRANCH   7   8
HETATM    8  C   UNL     1      44.599  43.520  45.682  1.00  0.00     0.177 C 
BRANCH   8   9
HETATM    9  C   UNL     1      44.082  43.784  44.268  1.00  0.00     0.170 C 
BRANCH   9  10
HETATM   10  O   UNL     1      45.022  43.278  43.307  1.00  0.00    -0.380 OA
HETATM   11  H   UNL     1      45.447  42.527  43.773  1.00  0.00     0.211 HD
ENDBRANCH   9  10
BRANCH   9  12
HETATM   12  C   UNL     1      43.880  45.282  44.016  1.00  0.00     0.169 C 
BRANCH  12  13
HETATM   13  O   UNL     1      43.159  45.453  42.789  1.00  0.00    -0.380 OA
HETATM   14  H   UNL     1      42.225  45.308  43.047  1.00  0.00     0.211 HD
ENDBRANCH  12  13
ENDBRANCH   9  12
ENDBRANCH   8   9
ENDBRANCH   7   8
ENDBRANCH   6   7
BRANCH   5  15
HETATM   15  O   UNL     1      45.945  41.223  48.250  1.00  0.00    -0.378 OA
HETATM   16  H   UNL     1      46.262  40.617  48.947  1.00  0.00     0.211 HD
ENDBRANCH   5  15
BRANCH   3  17
HETATM   17  C   UNL     1      44.215  39.089  43.285  1.00  0.00     0.178 C 
BRANCH  17  18
HETATM   18  S   UNL     1      44.847  39.498  41.681  1.00  0.00     0.118 S 
HETATM   19  O   UNL     1      43.882  38.859  40.791  1.00  0.00    -0.594 OA
HETATM   20  O   UNL     1      46.180  38.899  41.670  1.00  0.00    -0.594 OA
HETATM   21  O   UNL     1      44.821  40.956  41.674  1.00  0.00    -0.594 OA
ENDBRANCH  17  18
ENDBRANCH   3  17
BRANCH   4  22
HETATM   22  O   UNL     1      47.115  38.682  47.321  1.00  0.00    -0.380 OA
HETATM   23  H   UNL     1      47.108  39.123  48.197  1.00  0.00     0.211 HD
ENDBRANCH   4  22
BRANCH   2  24
HETATM   24  O   UNL     1      46.974  38.247  44.626  1.00  0.00    -0.380 OA
HETATM   25  H   UNL     1      46.667  37.585  43.953  1.00  0.00     0.211 HD
ENDBRANCH   2  24
TORSDOF 11
ENDMDL
MODEL 3
REMARK VINA RESULT:    -5.479      2.594      4.891
REMARK INTER + INTRA:          -8.942
REMARK INTER:                  -7.549
REMARK INTRA:                  -1.393
REMARK UNBOUND:                -0.741
REMARK  11 active torsions:
REMARK  status: ('A' for Active; 'I' for Inactive)
REMARK    1  A    between atoms: S_1  and  C_17 
REMARK    2  A    between atoms: O_3  and  C_16 
REMARK    3  A    between atoms: O_3  and  C_18 
REMARK    4  A    between atoms: O_4  and  C_12 
REMARK    5  A    between atoms: O_5  and  C_14 
REMARK    6  A    between atoms: O_6  and  C_15 
REMARK    7  A    between atoms: O_10  and  C_19 
REMARK    8  A    between atoms: O_11  and  C_20 
REMARK    9  A    between atoms: C_13  and  C_17 
REMARK   10  A    between atoms: C_18  and  C_19 
REMARK   11  A    between atoms: C_19  and  C_20 
ROOT
HETATM    1  O   UNL     1      46.611  40.967  45.609  1.00  0.00    -0.328 OA
HETATM    2  C   UNL     1      46.119  40.565  47.971  1.00  0.00     0.168 C 
HETATM    3  C   UNL     1      45.658  41.250  46.667  1.00  0.00     0.166 C 
HETATM    4  C   UNL     1      46.333  39.059  47.728  1.00  0.00     0.172 C 
HETATM    5  C   UNL     1      47.236  38.796  46.521  1.00  0.00     0.197 C 
HETATM    6  C   UNL     1      46.718  39.580  45.303  1.00  0.00     0.266 C 
ENDROOT
BRANCH   6   7
HETATM    7  O   UNL     1      45.460  39.039  44.876  1.00  0.00    -0.326 OA
BRANCH   7   8
HETATM    8  C   UNL     1      45.507  38.615  43.510  1.00  0.00     0.177 C 
BRANCH   8   9
HETATM    9  C   UNL     1      44.302  39.151  42.738  1.00  0.00     0.170 C 
BRANCH   9  10
HETATM   10  O   UNL     1      44.098  38.365  41.553  1.00  0.00    -0.380 OA
HETATM   11  H   UNL     1      44.210  39.011  40.825  1.00  0.00     0.211 HD
ENDBRANCH   9  10
BRANCH   9  12
HETATM   12  C   UNL     1      44.503  40.613  42.330  1.00  0.00     0.169 C 
BRANCH  12  13
HETATM   13  O   UNL     1      44.329  41.446  43.484  1.00  0.00    -0.380 OA
HETATM   14  H   UNL     1      43.449  41.187  43.826  1.00  0.00     0.211 HD
ENDBRANCH  12  13
ENDBRANCH   9  12
ENDBRANCH   8   9
ENDBRANCH   7   8
ENDBRANCH   6   7
BRANCH   5  15
HETATM   15  O   UNL     1      47.293  37.392  46.210  1.00  0.00    -0.378 OA
HETATM   16  H   UNL     1      48.242  37.186  46.104  1.00  0.00     0.211 HD
ENDBRANCH   5  15
BRANCH   3  17
HETATM   17  C   UNL     1      45.565  42.770  46.751  1.00  0.00     0.178 C 
BRANCH  17  18
HETATM   18  S   UNL     1      43.938  43.372  46.394  1.00  0.00     0.118 S 
HETATM   19  O   UNL     1      43.699  44.303  47.494  1.00  0.00    -0.594 OA
HETATM   20  O   UNL     1      43.109  42.169  46.420  1.00  0.00    -0.594 OA
HETATM   21  O   UNL     1      44.092  43.992  45.083  1.00  0.00    -0.594 OA
ENDBRANCH  17  18
ENDBRANCH   3  17
BRANCH   4  22
HETATM   22  O   UNL     1      46.898  38.482  48.921  1.00  0.00    -0.380 OA
HETATM   23  H   UNL     1      46.249  38.715  49.618  1.00  0.00     0.211 HD
ENDBRANCH   4  22
BRANCH   2  24
HETATM   24  O   UNL     1      45.218  40.633  49.081  1.00  0.00    -0.380 OA
HETATM   25  H   UNL     1      44.296  40.802  48.756  1.00  0.00     0.211 HD
ENDBRANCH   2  24
TORSDOF 11
ENDMDL
MODEL 4
REMARK VINA RESULT:    -5.424     10.427     12.226
REMARK INTER + INTRA:          -8.861
REMARK INTER:                  -6.987
REMARK INTRA:                  -1.874
REMARK UNBOUND:                -0.741
REMARK  11 active torsions:
REMARK  status: ('A' for Active; 'I' for Inactive)
REMARK    1  A    between atoms: S_1  and  C_17 
REMARK    2  A    between atoms: O_3  and  C_16 
REMARK    3  A    between atoms: O_3  and  C_18 
REMARK    4  A    between atoms: O_4  and  C_12 
REMARK    5  A    between atoms: O_5  and  C_14 
REMARK    6  A    between atoms: O_6  and  C_15 
REMARK    7  A    between atoms: O_10  and  C_19 
REMARK    8  A    between atoms: O_11  and  C_20 
REMARK    9  A    between atoms: C_13  and  C_17 
REMARK   10  A    between atoms: C_18  and  C_19 
REMARK   11  A    between atoms: C_19  and  C_20 
ROOT
HETATM    1  O   UNL     1      37.611  42.729  55.188  1.00  0.00    -0.328 OA
HETATM    2  C   UNL     1      39.373  44.051  54.122  1.00  0.00     0.168 C 
HETATM    3  C   UNL     1      38.379  42.880  53.965  1.00  0.00     0.166 C 
HETATM    4  C   UNL     1      38.618  45.330  54.532  1.00  0.00     0.172 C 
HETATM    5  C   UNL     1      37.714  45.099  55.744  1.00  0.00     0.197 C 
HETATM    6  C   UNL     1      36.820  43.872  55.500  1.00  0.00     0.266 C 
ENDROOT
BRANCH   6   7
HETATM    7  O   UNL     1      35.877  44.157  54.458  1.00  0.00    -0.326 OA
BRANCH   7   8
HETATM    8  C   UNL     1      34.622  43.511  54.695  1.00  0.00     0.177 C 
BRANCH   8   9
HETATM    9  C   UNL     1      34.301  42.529  53.569  1.00  0.00     0.170 C 
BRANCH   9  10
HETATM   10  O   UNL     1      35.169  41.389  53.659  1.00  0.00    -0.380 OA
HETATM   11  H   UNL     1      34.971  40.883  52.843  1.00  0.00     0.211 HD
ENDBRANCH   9  10
BRANCH   9  12
HETATM   12  C   UNL     1      34.480  43.177  52.192  1.00  0.00     0.169 C 
BRANCH  12  13
HETATM   13  O   UNL     1      35.803  42.897  51.716  1.00  0.00    -0.380 OA
HETATM   14  H   UNL     1      35.705  42.909  50.741  1.00  0.00     0.211 HD
ENDBRANCH  12  13
ENDBRANCH   9  12
ENDBRANCH   8   9
ENDBRANCH   7   8
ENDBRANCH   6   7
BRANCH   5  15
HETATM   15  O   UNL     1      36.898  46.253  56.013  1.00  0.00    -0.378 OA
HETATM   16  H   UNL     1      36.745  46.674  55.145  1.00  0.00     0.211 HD
ENDBRANCH   5  15
BRANCH   3  17
HETATM   17  C   UNL     1      39.035  41.526  53.713  1.00  0.00     0.178 C 
BRANCH  17  18
HETATM   18  S   UNL     1      38.734  40.920  52.076  1.00  0.00     0.118 S 
HETATM   19  O   UNL     1      38.996  42.098  51.252  1.00  0.00    -0.594 OA
HETATM   20  O   UNL     1      37.336  40.497  52.113  1.00  0.00    -0.594 OA
HETATM   21  O   UNL     1      39.706  39.841  51.936  1.00  0.00    -0.594 OA
ENDBRANCH  17  18
ENDBRANCH   3  17
BRANCH   4  22
HETATM   22  O   UNL     1      39.587  46.360  54.808  1.00  0.00    -0.380 OA
HETATM   23  H   UNL     1      40.447  45.916  54.651  1.00  0.00     0.211 HD
ENDBRANCH   4  22
BRANCH   2  24
HETATM   24  O   UNL     1      40.114  44.420  52.955  1.00  0.00    -0.380 OA
HETATM   25  H   UNL     1      40.112  45.407  52.853  1.00  0.00     0.211 HD
ENDBRANCH   2  24
TORSDOF 11
ENDMDL
MODEL 5
REMARK VINA RESULT:    -5.230     11.445     13.628
REMARK INTER + INTRA:          -8.569
REMARK INTER:                  -7.336
REMARK INTRA:                  -1.233
REMARK UNBOUND:                -0.741
REMARK  11 active torsions:
REMARK  status: ('A' for Active; 'I' for Inactive)
REMARK    1  A    between atoms: S_1  and  C_17 
REMARK    2  A    between atoms: O_3  and  C_16 
REMARK    3  A    between atoms: O_3  and  C_18 
REMARK    4  A    between atoms: O_4  and  C_12 
REMARK    5  A    between atoms: O_5  and  C_14 
REMARK    6  A    between atoms: O_6  and  C_15 
REMARK    7  A    between atoms: O_10  and  C_19 
REMARK    8  A    between atoms: O_11  and  C_20 
REMARK    9  A    between atoms: C_13  and  C_17 
REMARK   10  A    between atoms: C_18  and  C_19 
REMARK   11  A    between atoms: C_19  and  C_20 
ROOT
HETATM    1  O   UNL     1      36.361  42.226  55.068  1.00  0.00    -0.328 OA
HETATM    2  C   UNL     1      35.986  41.838  52.682  1.00  0.00     0.168 C 
HETATM    3  C   UNL     1      35.463  42.519  53.965  1.00  0.00     0.166 C 
HETATM    4  C   UNL     1      37.441  42.266  52.415  1.00  0.00     0.172 C 
HETATM    5  C   UNL     1      38.331  42.069  53.644  1.00  0.00     0.197 C 
HETATM    6  C   UNL     1      37.679  42.729  54.870  1.00  0.00     0.266 C 
ENDROOT
BRANCH   6   7
HETATM    7  O   UNL     1      37.677  44.154  54.712  1.00  0.00    -0.326 OA
BRANCH   7   8
HETATM    8  C   UNL     1      37.902  44.821  55.958  1.00  0.00     0.177 C 
BRANCH   8   9
HETATM    9  C   UNL     1      38.880  45.982  55.779  1.00  0.00     0.170 C 
BRANCH   9  10
HETATM   10  O   UNL     1      38.821  46.460  54.426  1.00  0.00    -0.380 OA
HETATM   11  H   UNL     1      37.938  46.882  54.368  1.00  0.00     0.211 HD
ENDBRANCH   9  10
BRANCH   9  12
HETATM   12  C   UNL     1      40.318  45.555  56.088  1.00  0.00     0.169 C 
BRANCH  12  13
HETATM   13  O   UNL     1      40.697  44.510  55.182  1.00  0.00    -0.380 OA
HETATM   14  H   UNL     1      41.675  44.552  55.176  1.00  0.00     0.211 HD
ENDBRANCH  12  13
ENDBRANCH   9  12
ENDBRANCH   8   9
ENDBRANCH   7   8
ENDBRANCH   6   7
BRANCH   5  15
HETATM   15  O   UNL     1      39.643  42.622  53.431  1.00  0.00    -0.378 OA
HETATM   16  H   UNL     1      39.505  43.580  53.301  1.00  0.00     0.211 HD
ENDBRANCH   5  15
BRANCH   3  17
HETATM   17  C   UNL     1      34.083  42.046  54.413  1.00  0.00     0.178 C 
BRANCH  17  18
HETATM   18  S   UNL     1      32.828  43.265  54.143  1.00  0.00     0.118 S 
HETATM   19  O   UNL     1      33.122  44.254  55.178  1.00  0.00    -0.594 OA
HETATM   20  O   UNL     1      31.581  42.530  54.336  1.00  0.00    -0.594 OA
HETATM   21  O   UNL     1      33.081  43.709  52.777  1.00  0.00    -0.594 OA
ENDBRANCH  17  18
ENDBRANCH   3  17
BRANCH   4  22
HETATM   22  O   UNL     1      37.941  41.506  51.298  1.00  0.00    -0.380 OA
HETATM   23  H   UNL     1      37.284  41.678  50.590  1.00  0.00     0.211 HD
ENDBRANCH   4  22
BRANCH   2  24
HETATM   24  O   UNL     1      35.287  42.140  51.470  1.00  0.00    -0.380 OA
HETATM   25  H   UNL     1      35.483  41.449  50.787  1.00  0.00     0.211 HD
ENDBRANCH   2  24
TORSDOF 11
ENDMDL
MODEL 6
REMARK VINA RESULT:    -5.220      4.007      7.244
REMARK INTER + INTRA:          -8.554
REMARK INTER:                  -6.616
REMARK INTRA:                  -1.938
REMARK UNBOUND:                -0.741
REMARK  11 active torsions:
REMARK  status: ('A' for Active; 'I' for Inactive)
REMARK    1  A    between atoms: S_1  and  C_17 
REMARK    2  A    between atoms: O_3  and  C_16 
REMARK    3  A    between atoms: O_3  and  C_18 
REMARK    4  A    between atoms: O_4  and  C_12 
REMARK    5  A    between atoms: O_5  and  C_14 
REMARK    6  A    between atoms: O_6  and  C_15 
REMARK    7  A    between atoms: O_10  and  C_19 
REMARK    8  A    between atoms: O_11  and  C_20 
REMARK    9  A    between atoms: C_13  and  C_17 
REMARK   10  A    between atoms: C_18  and  C_19 
REMARK   11  A    between atoms: C_19  and  C_20 
ROOT
HETATM    1  O   UNL     1      43.253  38.729  41.743  1.00  0.00    -0.328 OA
HETATM    2  C   UNL     1      45.397  38.946  40.586  1.00  0.00     0.168 C 
HETATM    3  C   UNL     1      44.689  38.602  41.914  1.00  0.00     0.166 C 
HETATM    4  C   UNL     1      44.836  38.072  39.449  1.00  0.00     0.172 C 
HETATM    5  C   UNL     1      43.309  38.125  39.384  1.00  0.00     0.197 C 
HETATM    6  C   UNL     1      42.719  37.833  40.774  1.00  0.00     0.266 C 
ENDROOT
BRANCH   6   7
HETATM    7  O   UNL     1      42.969  36.466  41.131  1.00  0.00    -0.326 OA
BRANCH   7   8
HETATM    8  C   UNL     1      41.884  35.913  41.881  1.00  0.00     0.177 C 
BRANCH   8   9
HETATM    9  C   UNL     1      42.343  35.526  43.287  1.00  0.00     0.170 C 
BRANCH   9  10
HETATM   10  O   UNL     1      42.602  36.711  44.055  1.00  0.00    -0.380 OA
HETATM   11  H   UNL     1      42.989  36.367  44.887  1.00  0.00     0.211 HD
ENDBRANCH   9  10
BRANCH   9  12
HETATM   12  C   UNL     1      43.618  34.678  43.246  1.00  0.00     0.169 C 
BRANCH  12  13
HETATM   13  O   UNL     1      44.752  35.532  43.443  1.00  0.00    -0.380 OA
HETATM   14  H   UNL     1      44.938  35.881  42.548  1.00  0.00     0.211 HD
ENDBRANCH  12  13
ENDBRANCH   9  12
ENDBRANCH   8   9
ENDBRANCH   7   8
ENDBRANCH   6   7
BRANCH   5  15
HETATM   15  O   UNL     1      42.795  37.181  38.426  1.00  0.00    -0.378 OA
HETATM   16  H   UNL     1      42.797  37.650  37.570  1.00  0.00     0.211 HD
ENDBRANCH   5  15
BRANCH   3  17
HETATM   17  C   UNL     1      45.055  39.516  43.079  1.00  0.00     0.178 C 
BRANCH  17  18
HETATM   18  S   UNL     1      46.002  38.684  44.322  1.00  0.00     0.118 S 
HETATM   19  O   UNL     1      46.701  39.788  44.976  1.00  0.00    -0.594 OA
HETATM   20  O   UNL     1      46.862  37.782  43.560  1.00  0.00    -0.594 OA
HETATM   21  O   UNL     1      44.984  38.031  45.137  1.00  0.00    -0.594 OA
ENDBRANCH  17  18
ENDBRANCH   3  17
BRANCH   4  22
HETATM   22  O   UNL     1      45.414  38.517  38.206  1.00  0.00    -0.380 OA
HETATM   23  H   UNL     1      44.934  37.995  37.529  1.00  0.00     0.211 HD
ENDBRANCH   4  22
BRANCH   2  24
HETATM   24  O   UNL     1      46.812  38.738  40.545  1.00  0.00    -0.380 OA
HETATM   25  H   UNL     1      47.112  38.641  39.604  1.00  0.00     0.211 HD
ENDBRANCH   2  24
TORSDOF 11
ENDMDL
MODEL 7
REMARK VINA RESULT:    -5.177     10.713     12.932
REMARK INTER + INTRA:          -8.491
REMARK INTER:                  -7.127
REMARK INTRA:                  -1.363
REMARK UNBOUND:                -0.741
REMARK  11 active torsions:
REMARK  status: ('A' for Active; 'I' for Inactive)
REMARK    1  A    between atoms: S_1  and  C_17 
REMARK    2  A    between atoms: O_3  and  C_16 
REMARK    3  A    between atoms: O_3  and  C_18 
REMARK    4  A    between atoms: O_4  and  C_12 
REMARK    5  A    between atoms: O_5  and  C_14 
REMARK    6  A    between atoms: O_6  and  C_15 
REMARK    7  A    between atoms: O_10  and  C_19 
REMARK    8  A    between atoms: O_11  and  C_20 
REMARK    9  A    between atoms: C_13  and  C_17 
REMARK   10  A    between atoms: C_18  and  C_19 
REMARK   11  A    between atoms: C_19  and  C_20 
ROOT
HETATM    1  O   UNL     1      37.957  44.635  54.191  1.00  0.00    -0.328 OA
HETATM    2  C   UNL     1      39.650  43.307  53.028  1.00  0.00     0.168 C 
HETATM    3  C   UNL     1      39.182  43.881  54.382  1.00  0.00     0.166 C 
HETATM    4  C   UNL     1      38.518  42.482  52.387  1.00  0.00     0.172 C 
HETATM    5  C   UNL     1      37.204  43.263  52.325  1.00  0.00     0.197 C 
HETATM    6  C   UNL     1      36.876  43.842  53.711  1.00  0.00     0.266 C 
ENDROOT
BRANCH   6   7
HETATM    7  O   UNL     1      36.564  42.778  54.621  1.00  0.00    -0.326 OA
BRANCH   7   8
HETATM    8  C   UNL     1      35.406  43.081  55.406  1.00  0.00     0.177 C 
BRANCH   8   9
HETATM    9  C   UNL     1      34.234  42.185  55.006  1.00  0.00     0.170 C 
BRANCH   9  10
HETATM   10  O   UNL     1      34.696  41.145  54.130  1.00  0.00    -0.380 OA
HETATM   11  H   UNL     1      35.672  41.231  54.164  1.00  0.00     0.211 HD
ENDBRANCH   9  10
BRANCH   9  12
HETATM   12  C   UNL     1      33.139  42.982  54.291  1.00  0.00     0.169 C 
BRANCH  12  13
HETATM   13  O   UNL     1      33.502  43.137  52.912  1.00  0.00    -0.380 OA
HETATM   14  H   UNL     1      34.094  43.917  52.915  1.00  0.00     0.211 HD
ENDBRANCH  12  13
ENDBRANCH   9  12
ENDBRANCH   8   9
ENDBRANCH   7   8
ENDBRANCH   6   7
BRANCH   5  15
HETATM   15  O   UNL     1      36.122  42.426  51.875  1.00  0.00    -0.378 OA
HETATM   16  H   UNL     1      35.308  42.848  52.212  1.00  0.00     0.211 HD
ENDBRANCH   5  15
BRANCH   3  17
HETATM   17  C   UNL     1      40.169  44.845  55.033  1.00  0.00     0.178 C 
BRANCH  17  18
HETATM   18  S   UNL     1      40.874  44.192  56.521  1.00  0.00     0.118 S 
HETATM   19  O   UNL     1      39.795  44.375  57.487  1.00  0.00    -0.594 OA
HETATM   20  O   UNL     1      42.048  45.033  56.748  1.00  0.00    -0.594 OA
HETATM   21  O   UNL     1      41.162  42.805  56.173  1.00  0.00    -0.594 OA
ENDBRANCH  17  18
ENDBRANCH   3  17
BRANCH   4  22
HETATM   22  O   UNL     1      38.936  42.083  51.068  1.00  0.00    -0.380 OA
HETATM   23  H   UNL     1      38.284  42.517  50.478  1.00  0.00     0.211 HD
ENDBRANCH   4  22
BRANCH   2  24
HETATM   24  O   UNL     1      40.774  42.422  53.064  1.00  0.00    -0.380 OA
HETATM   25  H   UNL     1      41.201  42.383  52.169  1.00  0.00     0.211 HD
ENDBRANCH   2  24
TORSDOF 11
ENDMDL
MODEL 8
REMARK VINA RESULT:    -4.988      1.640      2.559
REMARK INTER + INTRA:          -8.208
REMARK INTER:                  -6.889
REMARK INTRA:                  -1.319
REMARK UNBOUND:                -0.741
REMARK  11 active torsions:
REMARK  status: ('A' for Active; 'I' for Inactive)
REMARK    1  A    between atoms: S_1  and  C_17 
REMARK    2  A    between atoms: O_3  and  C_16 
REMARK    3  A    between atoms: O_3  and  C_18 
REMARK    4  A    between atoms: O_4  and  C_12 
REMARK    5  A    between atoms: O_5  and  C_14 
REMARK    6  A    between atoms: O_6  and  C_15 
REMARK    7  A    between atoms: O_10  and  C_19 
REMARK    8  A    between atoms: O_11  and  C_20 
REMARK    9  A    between atoms: C_13  and  C_17 
REMARK   10  A    between atoms: C_18  and  C_19 
REMARK   11  A    between atoms: C_19  and  C_20 
ROOT
HETATM    1  O   UNL     1      43.961  39.486  45.110  1.00  0.00    -0.328 OA
HETATM    2  C   UNL     1      45.989  38.258  45.710  1.00  0.00     0.168 C 
HETATM    3  C   UNL     1      45.148  38.856  44.562  1.00  0.00     0.166 C 
HETATM    4  C   UNL     1      46.302  39.346  46.755  1.00  0.00     0.172 C 
HETATM    5  C   UNL     1      45.041  40.082  47.211  1.00  0.00     0.197 C 
HETATM    6  C   UNL     1      44.252  40.572  45.984  1.00  0.00     0.266 C 
ENDROOT
BRANCH   6   7
HETATM    7  O   UNL     1      44.990  41.602  45.312  1.00  0.00    -0.326 OA
BRANCH   7   8
HETATM    8  C   UNL     1      44.121  42.603  44.773  1.00  0.00     0.177 C 
BRANCH   8   9
HETATM    9  C   UNL     1      44.043  43.810  45.707  1.00  0.00     0.170 C 
BRANCH   9  10
HETATM   10  O   UNL     1      43.212  44.824  45.120  1.00  0.00    -0.380 OA
HETATM   11  H   UNL     1      43.854  45.438  44.706  1.00  0.00     0.211 HD
ENDBRANCH   9  10
BRANCH   9  12
HETATM   12  C   UNL     1      45.431  44.404  45.971  1.00  0.00     0.169 C 
BRANCH  12  13
HETATM   13  O   UNL     1      46.020  43.727  47.089  1.00  0.00    -0.380 OA
HETATM   14  H   UNL     1      45.255  43.317  47.542  1.00  0.00     0.211 HD
ENDBRANCH  12  13
ENDBRANCH   9  12
ENDBRANCH   8   9
ENDBRANCH   7   8
ENDBRANCH   6   7
BRANCH   5  15
HETATM   15  O   UNL     1      45.367  41.198  48.060  1.00  0.00    -0.378 OA
HETATM   16  H   UNL     1      45.833  40.815  48.828  1.00  0.00     0.211 HD
ENDBRANCH   5  15
BRANCH   3  17
HETATM   17  C   UNL     1      44.647  37.832  43.548  1.00  0.00     0.178 C 
BRANCH  17  18
HETATM   18  S   UNL     1      45.671  37.750  42.105  1.00  0.00     0.118 S 
HETATM   19  O   UNL     1      45.998  39.154  41.871  1.00  0.00    -0.594 OA
HETATM   20  O   UNL     1      44.804  37.146  41.097  1.00  0.00    -0.594 OA
HETATM   21  O   UNL     1      46.791  36.920  42.537  1.00  0.00    -0.594 OA
ENDBRANCH  17  18
ENDBRANCH   3  17
BRANCH   4  22
HETATM   22  O   UNL     1      46.961  38.724  47.875  1.00  0.00    -0.380 OA
HETATM   23  H   UNL     1      46.385  38.951  48.636  1.00  0.00     0.211 HD
ENDBRANCH   4  22
BRANCH   2  24
HETATM   24  O   UNL     1      47.265  37.717  45.352  1.00  0.00    -0.380 OA
HETATM   25  H   UNL     1      47.939  37.962  46.036  1.00  0.00     0.211 HD
ENDBRANCH   2  24
TORSDOF 11
ENDMDL
MODEL 9
REMARK VINA RESULT:    -4.951      4.275      7.326
REMARK INTER + INTRA:          -8.152
REMARK INTER:                  -6.465
REMARK INTRA:                  -1.687
REMARK UNBOUND:                -0.741
REMARK  11 active torsions:
REMARK  status: ('A' for Active; 'I' for Inactive)
REMARK    1  A    between atoms: S_1  and  C_17 
REMARK    2  A    between atoms: O_3  and  C_16 
REMARK    3  A    between atoms: O_3  and  C_18 
REMARK    4  A    between atoms: O_4  and  C_12 
REMARK    5  A    between atoms: O_5  and  C_14 
REMARK    6  A    between atoms: O_6  and  C_15 
REMARK    7  A    between atoms: O_10  and  C_19 
REMARK    8  A    between atoms: O_11  and  C_20 
REMARK    9  A    between atoms: C_13  and  C_17 
REMARK   10  A    between atoms: C_18  and  C_19 
REMARK   11  A    between atoms: C_19  and  C_20 
ROOT
HETATM    1  O   UNL     1      44.039  36.366  41.893  1.00  0.00    -0.328 OA
HETATM    2  C   UNL     1      42.849  38.452  41.428  1.00  0.00     0.168 C 
HETATM    3  C   UNL     1      44.075  37.802  42.105  1.00  0.00     0.166 C 
HETATM    4  C   UNL     1      42.797  38.055  39.941  1.00  0.00     0.172 C 
HETATM    5  C   UNL     1      42.898  36.541  39.747  1.00  0.00     0.197 C 
HETATM    6  C   UNL     1      44.113  35.998  40.519  1.00  0.00     0.266 C 
ENDROOT
BRANCH   6   7
HETATM    7  O   UNL     1      45.324  36.471  39.913  1.00  0.00    -0.326 OA
BRANCH   7   8
HETATM    8  C   UNL     1      46.444  35.660  40.279  1.00  0.00     0.177 C 
BRANCH   8   9
HETATM    9  C   UNL     1      47.604  36.530  40.762  1.00  0.00     0.170 C 
BRANCH   9  10
HETATM   10  O   UNL     1      47.339  36.992  42.096  1.00  0.00    -0.380 OA
HETATM   11  H   UNL     1      47.389  36.177  42.637  1.00  0.00     0.211 HD
ENDBRANCH   9  10
BRANCH   9  12
HETATM   12  C   UNL     1      47.811  37.745  39.852  1.00  0.00     0.169 C 
BRANCH  12  13
HETATM   13  O   UNL     1      46.964  38.811  40.301  1.00  0.00    -0.380 OA
HETATM   14  H   UNL     1      47.186  38.900  41.250  1.00  0.00     0.211 HD
ENDBRANCH  12  13
ENDBRANCH   9  12
ENDBRANCH   8   9
ENDBRANCH   7   8
ENDBRANCH   6   7
BRANCH   5  15
HETATM   15  O   UNL     1      43.011  36.200  38.354  1.00  0.00    -0.378 OA
HETATM   16  H   UNL     1      42.809  37.021  37.866  1.00  0.00     0.211 HD
ENDBRANCH   5  15
BRANCH   3  17
HETATM   17  C   UNL     1      44.140  38.000  43.616  1.00  0.00     0.178 C 
BRANCH  17  18
HETATM   18  S   UNL     1      45.150  39.380  44.076  1.00  0.00     0.118 S 
HETATM   19  O   UNL     1      46.085  39.473  42.958  1.00  0.00    -0.594 OA
HETATM   20  O   UNL     1      45.749  38.965  45.343  1.00  0.00    -0.594 OA
HETATM   21  O   UNL     1      44.193  40.477  44.173  1.00  0.00    -0.594 OA
ENDBRANCH  17  18
ENDBRANCH   3  17
BRANCH   4  22
HETATM   22  O   UNL     1      41.570  38.559  39.378  1.00  0.00    -0.380 OA
HETATM   23  H   UNL     1      41.152  37.763  38.986  1.00  0.00     0.211 HD
ENDBRANCH   4  22
BRANCH   2  24
HETATM   24  O   UNL     1      42.805  39.883  41.427  1.00  0.00    -0.380 OA
HETATM   25  H   UNL     1      43.383  40.238  42.151  1.00  0.00     0.211 HD
ENDBRANCH   2  24
TORSDOF 11
ENDMDL
MODEL 10
REMARK VINA RESULT:    -4.891      9.758     11.633
REMARK INTER + INTRA:          -8.062
REMARK INTER:                  -6.258
REMARK INTRA:                  -1.804
REMARK UNBOUND:                -0.741
REMARK  11 active torsions:
REMARK  status: ('A' for Active; 'I' for Inactive)
REMARK    1  A    between atoms: S_1  and  C_17 
REMARK    2  A    between atoms: O_3  and  C_16 
REMARK    3  A    between atoms: O_3  and  C_18 
REMARK    4  A    between atoms: O_4  and  C_12 
REMARK    5  A    between atoms: O_5  and  C_14 
REMARK    6  A    between atoms: O_6  and  C_15 
REMARK    7  A    between atoms: O_10  and  C_19 
REMARK    8  A    between atoms: O_11  and  C_20 
REMARK    9  A    between atoms: C_13  and  C_17 
REMARK   10  A    between atoms: C_18  and  C_19 
REMARK   11  A    between atoms: C_19  and  C_20 
ROOT
HETATM    1  O   UNL     1      38.365  42.542  55.630  1.00  0.00    -0.328 OA
HETATM    2  C   UNL     1      40.701  42.589  56.356  1.00  0.00     0.168 C 
HETATM    3  C   UNL     1      39.580  41.751  55.703  1.00  0.00     0.166 C 
HETATM    4  C   UNL     1      40.879  43.915  55.592  1.00  0.00     0.172 C 
HETATM    5  C   UNL     1      39.554  44.658  55.415  1.00  0.00     0.197 C 
HETATM    6  C   UNL     1      38.499  43.708  54.822  1.00  0.00     0.266 C 
ENDROOT
BRANCH   6   7
HETATM    7  O   UNL     1      38.852  43.372  53.473  1.00  0.00    -0.326 OA
BRANCH   7   8
HETATM    8  C   UNL     1      37.692  43.111  52.678  1.00  0.00     0.177 C 
BRANCH   8   9
HETATM    9  C   UNL     1      37.735  41.692  52.111  1.00  0.00     0.170 C 
BRANCH   9  10
HETATM   10  O   UNL     1      37.614  40.740  53.179  1.00  0.00    -0.380 OA
HETATM   11  H   UNL     1      37.155  41.241  53.885  1.00  0.00     0.211 HD
ENDBRANCH   9  10
BRANCH   9  12
HETATM   12  C   UNL     1      39.046  41.428  51.363  1.00  0.00     0.169 C 
BRANCH  12  13
HETATM   13  O   UNL     1      40.087  41.189  52.319  1.00  0.00    -0.380 OA
HETATM   14  H   UNL     1      40.892  41.526  51.875  1.00  0.00     0.211 HD
ENDBRANCH  12  13
ENDBRANCH   9  12
ENDBRANCH   8   9
ENDBRANCH   7   8
ENDBRANCH   6   7
BRANCH   5  15
HETATM   15  O   UNL     1      39.711  45.807  54.563  1.00  0.00    -0.378 OA
HETATM   16  H   UNL     1      39.525  45.490  53.659  1.00  0.00     0.211 HD
ENDBRANCH   5  15
BRANCH   3  17
HETATM   17  C   UNL     1      39.210  40.486  56.471  1.00  0.00     0.178 C 
BRANCH  17  18
HETATM   18  S   UNL     1      39.894  39.025  55.742  1.00  0.00     0.118 S 
HETATM   19  O   UNL     1      41.283  39.069  56.191  1.00  0.00    -0.594 OA
HETATM   20  O   UNL     1      39.709  39.232  54.308  1.00  0.00    -0.594 OA
HETATM   21  O   UNL     1      39.092  37.954  56.323  1.00  0.00    -0.594 OA
ENDBRANCH  17  18
ENDBRANCH   3  17
BRANCH   4  22
HETATM   22  O   UNL     1      41.827  44.729  56.309  1.00  0.00    -0.380 OA
HETATM   23  H   UNL     1      41.950  45.507  55.725  1.00  0.00     0.211 HD
ENDBRANCH   4  22
BRANCH   2  24
HETATM   24  O   UNL     1      42.005  42.002  56.380  1.00  0.00    -0.380 OA
HETATM   25  H   UNL     1      42.265  41.797  57.315  1.00  0.00     0.211 HD
ENDBRANCH   2  24
TORSDOF 11
ENDMDL
