MODEL 1
REMARK VINA RESULT:    -5.773      0.000      0.000
REMARK INTER + INTRA:          -9.554
REMARK INTER:                  -8.642
REMARK INTRA:                  -0.911
REMARK UNBOUND:                -0.911
REMARK  11 active torsions:
REMARK  status: ('A' for Active; 'I' for Inactive)
REMARK    1  A    between atoms: S_1  and  C_17 
REMARK    2  A    between atoms: O_3  and  C_16 
REMARK    3  A    between atoms: O_3  and  C_18 
REMARK    4  A    between atoms: O_4  and  C_12 
REMARK    5  A    between atoms: O_5  and  C_14 
REMARK    6  A    between atoms: O_6  and  C_15 
REMARK    7  A    between atoms: O_10  and  C_19 
REMARK    8  A    between atoms: O_11  and  C_20 
REMARK    9  A    between atoms: C_13  and  C_17 
REMARK   10  A    between atoms: C_18  and  C_19 
REMARK   11  A    between atoms: C_19  and  C_20 
ROOT
HETATM    1  O   UNL     1      44.003  40.487  45.368  1.00  0.00    -0.328 OA
HETATM    2  C   UNL     1      45.956  39.929  46.731  1.00  0.00     0.168 C 
HETATM    3  C   UNL     1      45.306  39.847  45.334  1.00  0.00     0.166 C 
HETATM    4  C   UNL     1      46.007  41.394  47.203  1.00  0.00     0.172 C 
HETATM    5  C   UNL     1      44.643  42.079  47.097  1.00  0.00     0.197 C 
HETATM    6  C   UNL     1      44.065  41.874  45.687  1.00  0.00     0.266 C 
ENDROOT
BRANCH   6   7
HETATM    7  O   UNL     1      44.852  42.597  44.730  1.00  0.00    -0.326 OA
BRANCH   7   8
HETATM    8  C   UNL     1      44.069  42.996  43.601  1.00  0.00     0.177 C 
BRANCH   8   9
HETATM    9  C   UNL     1      44.245  44.489  43.323  1.00  0.00     0.170 C 
BRANCH   9  10
HETATM   10  O   UNL     1      45.382  44.691  42.469  1.00  0.00    -0.380 OA
HETATM   11  H   UNL     1      45.742  43.788  42.347  1.00  0.00     0.211 HD
ENDBRANCH   9  10
BRANCH   9  12
HETATM   12  C   UNL     1      44.456  45.278  44.619  1.00  0.00     0.169 C 
BRANCH  12  13
HETATM   13  O   UNL     1      43.222  45.316  45.346  1.00  0.00    -0.380 OA
HETATM   14  H   UNL     1      42.564  45.587  44.673  1.00  0.00     0.211 HD
ENDBRANCH  12  13
ENDBRANCH   9  12
ENDBRANCH   8   9
ENDBRANCH   7   8
ENDBRANCH   6   7
BRANCH   5  15
HETATM   15  O   UNL     1      44.743  43.486  47.386  1.00  0.00    -0.378 OA
HETATM   16  H   UNL     1      45.291  43.550  48.191  1.00  0.00     0.211 HD
ENDBRANCH   5  15
BRANCH   3  17
HETATM   17  C   UNL     1      45.060  38.427  44.834  1.00  0.00     0.178 C 
BRANCH  17  18
HETATM   18  S   UNL     1      45.788  38.130  43.248  1.00  0.00     0.118 S 
HETATM   19  O   UNL     1      44.816  37.241  42.616  1.00  0.00    -0.594 OA
HETATM   20  O   UNL     1      47.072  37.507  43.564  1.00  0.00    -0.594 OA
HETATM   21  O   UNL     1      45.873  39.464  42.664  1.00  0.00    -0.594 OA
ENDBRANCH  17  18
ENDBRANCH   3  17
BRANCH   4  22
HETATM   22  O   UNL     1      46.485  41.418  48.562  1.00  0.00    -0.380 OA
HETATM   23  H   UNL     1      45.784  41.907  49.043  1.00  0.00     0.211 HD
ENDBRANCH   4  22
BRANCH   2  24
HETATM   24  O   UNL     1      47.304  39.462  46.836  1.00  0.00    -0.380 OA
HETATM   25  H   UNL     1      47.825  39.758  46.045  1.00  0.00     0.211 HD
ENDBRANCH   2  24
TORSDOF 11
ENDMDL
MODEL 2
REMARK VINA RESULT:    -5.316     10.331     12.125
REMARK INTER + INTRA:          -8.869
REMARK INTER:                  -7.002
REMARK INTRA:                  -1.867
REMARK UNBOUND:                -0.911
REMARK  11 active torsions:
REMARK  status: ('A' for Active; 'I' for Inactive)
REMARK    1  A    between atoms: S_1  and  C_17 
REMARK    2  A    between atoms: O_3  and  C_16 
REMARK    3  A    between atoms: O_3  and  C_18 
REMARK    4  A    between atoms: O_4  and  C_12 
REMARK    5  A    between atoms: O_5  and  C_14 
REMARK    6  A    between atoms: O_6  and  C_15 
REMARK    7  A    between atoms: O_10  and  C_19 
REMARK    8  A    between atoms: O_11  and  C_20 
REMARK    9  A    between atoms: C_13  and  C_17 
REMARK   10  A    between atoms: C_18  and  C_19 
REMARK   11  A    between atoms: C_19  and  C_20 
ROOT
HETATM    1  O   UNL     1      37.611  42.724  55.178  1.00  0.00    -0.328 OA
HETATM    2  C   UNL     1      39.417  44.040  54.182  1.00  0.00     0.168 C 
HETATM    3  C   UNL     1      38.397  42.901  53.970  1.00  0.00     0.166 C 
HETATM    4  C   UNL     1      38.689  45.321  54.632  1.00  0.00     0.172 C 
HETATM    5  C   UNL     1      37.766  45.068  55.825  1.00  0.00     0.197 C 
HETATM    6  C   UNL     1      36.845  43.873  55.525  1.00  0.00     0.266 C 
ENDROOT
BRANCH   6   7
HETATM    7  O   UNL     1      35.921  44.221  54.484  1.00  0.00    -0.326 OA
BRANCH   7   8
HETATM    8  C   UNL     1      34.654  43.585  54.673  1.00  0.00     0.177 C 
BRANCH   8   9
HETATM    9  C   UNL     1      34.341  42.649  53.506  1.00  0.00     0.170 C 
BRANCH   9  10
HETATM   10  O   UNL     1      35.181  41.486  53.579  1.00  0.00    -0.380 OA
HETATM   11  H   UNL     1      35.875  41.660  52.909  1.00  0.00     0.211 HD
ENDBRANCH   9  10
BRANCH   9  12
HETATM   12  C   UNL     1      34.572  43.339  52.158  1.00  0.00     0.169 C 
BRANCH  12  13
HETATM   13  O   UNL     1      35.900  43.045  51.707  1.00  0.00    -0.380 OA
HETATM   14  H   UNL     1      35.826  42.139  51.343  1.00  0.00     0.211 HD
ENDBRANCH  12  13
ENDBRANCH   9  12
ENDBRANCH   8   9
ENDBRANCH   7   8
ENDBRANCH   6   7
BRANCH   5  15
HETATM   15  O   UNL     1      36.975  46.231  56.128  1.00  0.00    -0.378 OA
HETATM   16  H   UNL     1      37.397  46.639  56.909  1.00  0.00     0.211 HD
ENDBRANCH   5  15
BRANCH   3  17
HETATM   17  C   UNL     1      39.022  41.542  53.674  1.00  0.00     0.178 C 
BRANCH  17  18
HETATM   18  S   UNL     1      38.758  41.023  52.002  1.00  0.00     0.118 S 
HETATM   19  O   UNL     1      39.710  39.925  51.859  1.00  0.00    -0.594 OA
HETATM   20  O   UNL     1      39.074  42.213  51.214  1.00  0.00    -0.594 OA
HETATM   21  O   UNL     1      37.354  40.627  51.992  1.00  0.00    -0.594 OA
ENDBRANCH  17  18
ENDBRANCH   3  17
BRANCH   4  22
HETATM   22  O   UNL     1      39.679  46.316  54.957  1.00  0.00    -0.380 OA
HETATM   23  H   UNL     1      39.773  46.238  55.930  1.00  0.00     0.211 HD
ENDBRANCH   4  22
BRANCH   2  24
HETATM   24  O   UNL     1      40.180  44.435  53.037  1.00  0.00    -0.380 OA
HETATM   25  H   UNL     1      40.468  43.632  52.531  1.00  0.00     0.211 HD
ENDBRANCH   2  24
TORSDOF 11
ENDMDL
MODEL 3
REMARK VINA RESULT:    -5.268      2.513      5.750
REMARK INTER + INTRA:          -8.797
REMARK INTER:                  -7.789
REMARK INTRA:                  -1.008
REMARK UNBOUND:                -0.911
REMARK  11 active torsions:
REMARK  status: ('A' for Active; 'I' for Inactive)
REMARK    1  A    between atoms: S_1  and  C_17 
REMARK    2  A    between atoms: O_3  and  C_16 
REMARK    3  A    between atoms: O_3  and  C_18 
REMARK    4  A    between atoms: O_4  and  C_12 
REMARK    5  A    between atoms: O_5  and  C_14 
REMARK    6  A    between atoms: O_6  and  C_15 
REMARK    7  A    between atoms: O_10  and  C_19 
REMARK    8  A    between atoms: O_11  and  C_20 
REMARK    9  A    between atoms: C_13  and  C_17 
REMARK   10  A    between atoms: C_18  and  C_19 
REMARK   11  A    between atoms: C_19  and  C_20 
ROOT
HETATM    1  O   UNL     1      44.544  41.525  47.209  1.00  0.00    -0.328 OA
HETATM    2  C   UNL     1      44.217  41.643  44.788  1.00  0.00     0.168 C 
HETATM    3  C   UNL     1      44.748  42.367  46.044  1.00  0.00     0.166 C 
HETATM    4  C   UNL     1      44.875  40.256  44.662  1.00  0.00     0.172 C 
HETATM    5  C   UNL     1      44.758  39.447  45.955  1.00  0.00     0.197 C 
HETATM    6  C   UNL     1      45.252  40.290  47.143  1.00  0.00     0.266 C 
ENDROOT
BRANCH   6   7
HETATM    7  O   UNL     1      46.666  40.502  47.034  1.00  0.00    -0.326 OA
BRANCH   7   8
HETATM    8  C   UNL     1      47.245  40.839  48.298  1.00  0.00     0.177 C 
BRANCH   8   9
HETATM    9  C   UNL     1      47.680  42.305  48.318  1.00  0.00     0.170 C 
BRANCH   9  10
HETATM   10  O   UNL     1      48.044  42.720  46.993  1.00  0.00    -0.380 OA
HETATM   11  H   UNL     1      47.688  42.008  46.422  1.00  0.00     0.211 HD
ENDBRANCH   9  10
BRANCH   9  12
HETATM   12  C   UNL     1      48.878  42.520  49.249  1.00  0.00     0.169 C 
BRANCH  12  13
HETATM   13  O   UNL     1      49.007  41.383  50.111  1.00  0.00    -0.380 OA
HETATM   14  H   UNL     1      49.043  41.775  51.008  1.00  0.00     0.211 HD
ENDBRANCH  12  13
ENDBRANCH   9  12
ENDBRANCH   8   9
ENDBRANCH   7   8
ENDBRANCH   6   7
BRANCH   5  15
HETATM   15  O   UNL     1      45.515  38.225  45.875  1.00  0.00    -0.378 OA
HETATM   16  H   UNL     1      45.584  37.899  46.793  1.00  0.00     0.211 HD
ENDBRANCH   5  15
BRANCH   3  17
HETATM   17  C   UNL     1      44.050  43.687  46.354  1.00  0.00     0.178 C 
BRANCH  17  18
HETATM   18  S   UNL     1      44.777  45.056  45.499  1.00  0.00     0.118 S 
HETATM   19  O   UNL     1      44.759  46.106  46.514  1.00  0.00    -0.594 OA
HETATM   20  O   UNL     1      43.876  45.280  44.371  1.00  0.00    -0.594 OA
HETATM   21  O   UNL     1      46.103  44.564  45.146  1.00  0.00    -0.594 OA
ENDBRANCH  17  18
ENDBRANCH   3  17
BRANCH   4  22
HETATM   22  O   UNL     1      44.254  39.556  43.567  1.00  0.00    -0.380 OA
HETATM   23  H   UNL     1      43.828  38.786  43.998  1.00  0.00     0.211 HD
ENDBRANCH   4  22
BRANCH   2  24
HETATM   24  O   UNL     1      44.466  42.282  43.531  1.00  0.00    -0.380 OA
HETATM   25  H   UNL     1      43.644  42.740  43.218  1.00  0.00     0.211 HD
ENDBRANCH   2  24
TORSDOF 11
ENDMDL
MODEL 4
REMARK VINA RESULT:    -5.093     11.323     13.430
REMARK INTER + INTRA:          -8.535
REMARK INTER:                  -7.308
REMARK INTRA:                  -1.227
REMARK UNBOUND:                -0.911
REMARK  11 active torsions:
REMARK  status: ('A' for Active; 'I' for Inactive)
REMARK    1  A    between atoms: S_1  and  C_17 
REMARK    2  A    between atoms: O_3  and  C_16 
REMARK    3  A    between atoms: O_3  and  C_18 
REMARK    4  A    between atoms: O_4  and  C_12 
REMARK    5  A    between atoms: O_5  and  C_14 
REMARK    6  A    between atoms: O_6  and  C_15 
REMARK    7  A    between atoms: O_10  and  C_19 
REMARK    8  A    between atoms: O_11  and  C_20 
REMARK    9  A    between atoms: C_13  and  C_17 
REMARK   10  A    between atoms: C_18  and  C_19 
REMARK   11  A    between atoms: C_19  and  C_20 
ROOT
HETATM    1  O   UNL     1      36.410  42.251  55.086  1.00  0.00    -0.328 OA
HETATM    2  C   UNL     1      36.036  41.813  52.709  1.00  0.00     0.168 C 
HETATM    3  C   UNL     1      35.522  42.535  53.973  1.00  0.00     0.166 C 
HETATM    4  C   UNL     1      37.501  42.205  52.438  1.00  0.00     0.172 C 
HETATM    5  C   UNL     1      38.382  42.020  53.674  1.00  0.00     0.197 C 
HETATM    6  C   UNL     1      37.738  42.723  54.882  1.00  0.00     0.266 C 
ENDROOT
BRANCH   6   7
HETATM    7  O   UNL     1      37.766  44.144  54.689  1.00  0.00    -0.326 OA
BRANCH   7   8
HETATM    8  C   UNL     1      37.944  44.838  55.927  1.00  0.00     0.177 C 
BRANCH   8   9
HETATM    9  C   UNL     1      38.886  46.029  55.746  1.00  0.00     0.170 C 
BRANCH   9  10
HETATM   10  O   UNL     1      38.837  46.482  54.384  1.00  0.00    -0.380 OA
HETATM   11  H   UNL     1      38.523  47.408  54.460  1.00  0.00     0.211 HD
ENDBRANCH   9  10
BRANCH   9  12
HETATM   12  C   UNL     1      40.331  45.657  56.089  1.00  0.00     0.169 C 
BRANCH  12  13
HETATM   13  O   UNL     1      40.664  44.428  55.430  1.00  0.00    -0.380 OA
HETATM   14  H   UNL     1      40.241  43.744  55.989  1.00  0.00     0.211 HD
ENDBRANCH  12  13
ENDBRANCH   9  12
ENDBRANCH   8   9
ENDBRANCH   7   8
ENDBRANCH   6   7
BRANCH   5  15
HETATM   15  O   UNL     1      39.705  42.541  53.453  1.00  0.00    -0.378 OA
HETATM   16  H   UNL     1      40.299  41.767  53.476  1.00  0.00     0.211 HD
ENDBRANCH   5  15
BRANCH   3  17
HETATM   17  C   UNL     1      34.132  42.101  54.426  1.00  0.00     0.178 C 
BRANCH  17  18
HETATM   18  S   UNL     1      32.899  43.332  54.107  1.00  0.00     0.118 S 
HETATM   19  O   UNL     1      33.222  44.362  55.090  1.00  0.00    -0.594 OA
HETATM   20  O   UNL     1      31.639  42.632  54.344  1.00  0.00    -0.594 OA
HETATM   21  O   UNL     1      33.151  43.704  52.719  1.00  0.00    -0.594 OA
ENDBRANCH  17  18
ENDBRANCH   3  17
BRANCH   4  22
HETATM   22  O   UNL     1      37.989  41.408  51.341  1.00  0.00    -0.380 OA
HETATM   23  H   UNL     1      38.719  41.949  50.971  1.00  0.00     0.211 HD
ENDBRANCH   4  22
BRANCH   2  24
HETATM   24  O   UNL     1      35.348  42.099  51.487  1.00  0.00    -0.380 OA
HETATM   25  H   UNL     1      35.224  41.264  50.966  1.00  0.00     0.211 HD
ENDBRANCH   2  24
TORSDOF 11
ENDMDL
MODEL 5
REMARK VINA RESULT:    -5.090      3.872      7.255
REMARK INTER + INTRA:          -8.531
REMARK INTER:                  -6.601
REMARK INTRA:                  -1.929
REMARK UNBOUND:                -0.911
REMARK  11 active torsions:
REMARK  status: ('A' for Active; 'I' for Inactive)
REMARK    1  A    between atoms: S_1  and  C_17 
REMARK    2  A    between atoms: O_3  and  C_16 
REMARK    3  A    between atoms: O_3  and  C_18 
REMARK    4  A    between atoms: O_4  and  C_12 
REMARK    5  A    between atoms: O_5  and  C_14 
REMARK    6  A    between atoms: O_6  and  C_15 
REMARK    7  A    between atoms: O_10  and  C_19 
REMARK    8  A    between atoms: O_11  and  C_20 
REMARK    9  A    between atoms: C_13  and  C_17 
REMARK   10  A    between atoms: C_18  and  C_19 
REMARK   11  A    between atoms: C_19  and  C_20 
ROOT
HETATM    1  O   UNL     1      43.285  38.721  41.745  1.00  0.00    -0.328 OA
HETATM    2  C   UNL     1      45.401  38.987  40.547  1.00  0.00     0.168 C 
HETATM    3  C   UNL     1      44.727  38.631  41.889  1.00  0.00     0.166 C 
HETATM    4  C   UNL     1      44.842  38.092  39.425  1.00  0.00     0.172 C 
HETATM    5  C   UNL     1      43.313  38.105  39.388  1.00  0.00     0.197 C 
HETATM    6  C   UNL     1      42.757  37.806  40.790  1.00  0.00     0.266 C 
ENDROOT
BRANCH   6   7
HETATM    7  O   UNL     1      43.048  36.448  41.149  1.00  0.00    -0.326 OA
BRANCH   7   8
HETATM    8  C   UNL     1      42.009  35.884  41.954  1.00  0.00     0.177 C 
BRANCH   8   9
HETATM    9  C   UNL     1      42.540  35.517  43.340  1.00  0.00     0.170 C 
BRANCH   9  10
HETATM   10  O   UNL     1      42.800  36.713  44.091  1.00  0.00    -0.380 OA
HETATM   11  H   UNL     1      43.654  37.031  43.731  1.00  0.00     0.211 HD
ENDBRANCH   9  10
BRANCH   9  12
HETATM   12  C   UNL     1      43.835  34.704  43.246  1.00  0.00     0.169 C 
BRANCH  12  13
HETATM   13  O   UNL     1      44.953  35.598  43.328  1.00  0.00    -0.380 OA
HETATM   14  H   UNL     1      45.662  35.129  42.843  1.00  0.00     0.211 HD
ENDBRANCH  12  13
ENDBRANCH   9  12
ENDBRANCH   8   9
ENDBRANCH   7   8
ENDBRANCH   6   7
BRANCH   5  15
HETATM   15  O   UNL     1      42.806  37.143  38.445  1.00  0.00    -0.378 OA
HETATM   16  H   UNL     1      42.491  36.391  38.981  1.00  0.00     0.211 HD
ENDBRANCH   5  15
BRANCH   3  17
HETATM   17  C   UNL     1      45.090  39.561  43.043  1.00  0.00     0.178 C 
BRANCH  17  18
HETATM   18  S   UNL     1      46.049  38.750  44.291  1.00  0.00     0.118 S 
HETATM   19  O   UNL     1      45.025  38.083  45.091  1.00  0.00    -0.594 OA
HETATM   20  O   UNL     1      46.737  39.846  44.969  1.00  0.00    -0.594 OA
HETATM   21  O   UNL     1      46.910  37.857  43.524  1.00  0.00    -0.594 OA
ENDBRANCH  17  18
ENDBRANCH   3  17
BRANCH   4  22
HETATM   22  O   UNL     1      45.385  38.545  38.169  1.00  0.00    -0.380 OA
HETATM   23  H   UNL     1      44.591  38.802  37.654  1.00  0.00     0.211 HD
ENDBRANCH   4  22
BRANCH   2  24
HETATM   24  O   UNL     1      46.820  38.814  40.481  1.00  0.00    -0.380 OA
HETATM   25  H   UNL     1      47.105  38.726  39.535  1.00  0.00     0.211 HD
ENDBRANCH   2  24
TORSDOF 11
ENDMDL
MODEL 6
REMARK VINA RESULT:    -5.026     10.803     13.033
REMARK INTER + INTRA:          -8.434
REMARK INTER:                  -7.056
REMARK INTRA:                  -1.378
REMARK UNBOUND:                -0.911
REMARK  11 active torsions:
REMARK  status: ('A' for Active; 'I' for Inactive)
REMARK    1  A    between atoms: S_1  and  C_17 
REMARK    2  A    between atoms: O_3  and  C_16 
REMARK    3  A    between atoms: O_3  and  C_18 
REMARK    4  A    between atoms: O_4  and  C_12 
REMARK    5  A    between atoms: O_5  and  C_14 
REMARK    6  A    between atoms: O_6  and  C_15 
REMARK    7  A    between atoms: O_10  and  C_19 
REMARK    8  A    between atoms: O_11  and  C_20 
REMARK    9  A    between atoms: C_13  and  C_17 
REMARK   10  A    between atoms: C_18  and  C_19 
REMARK   11  A    between atoms: C_19  and  C_20 
ROOT
HETATM    1  O   UNL     1      37.852  44.561  54.198  1.00  0.00    -0.328 OA
HETATM    2  C   UNL     1      39.412  43.083  53.030  1.00  0.00     0.168 C 
HETATM    3  C   UNL     1      39.030  43.732  54.377  1.00  0.00     0.166 C 
HETATM    4  C   UNL     1      38.206  42.316  52.455  1.00  0.00     0.172 C 
HETATM    5  C   UNL     1      36.946  43.182  52.406  1.00  0.00     0.197 C 
HETATM    6  C   UNL     1      36.705  43.827  53.781  1.00  0.00     0.266 C 
ENDROOT
BRANCH   6   7
HETATM    7  O   UNL     1      36.353  42.817  54.737  1.00  0.00    -0.326 OA
BRANCH   7   8
HETATM    8  C   UNL     1      35.161  43.161  55.450  1.00  0.00     0.177 C 
BRANCH   8   9
HETATM    9  C   UNL     1      34.053  42.146  55.169  1.00  0.00     0.170 C 
BRANCH   9  10
HETATM   10  O   UNL     1      34.569  41.078  54.360  1.00  0.00    -0.380 OA
HETATM   11  H   UNL     1      34.169  40.275  54.756  1.00  0.00     0.211 HD
ENDBRANCH   9  10
BRANCH   9  12
HETATM   12  C   UNL     1      32.874  42.793  54.437  1.00  0.00     0.169 C 
BRANCH  12  13
HETATM   13  O   UNL     1      33.283  43.135  53.107  1.00  0.00    -0.380 OA
HETATM   14  H   UNL     1      34.261  43.088  53.146  1.00  0.00     0.211 HD
ENDBRANCH  12  13
ENDBRANCH   9  12
ENDBRANCH   8   9
ENDBRANCH   7   8
ENDBRANCH   6   7
BRANCH   5  15
HETATM   15  O   UNL     1      35.796  42.407  52.021  1.00  0.00    -0.378 OA
HETATM   16  H   UNL     1      35.398  42.885  51.269  1.00  0.00     0.211 HD
ENDBRANCH   5  15
BRANCH   3  17
HETATM   17  C   UNL     1      40.101  44.648  54.962  1.00  0.00     0.178 C 
BRANCH  17  18
HETATM   18  S   UNL     1      40.816  43.994  56.445  1.00  0.00     0.118 S 
HETATM   19  O   UNL     1      39.721  44.115  57.403  1.00  0.00    -0.594 OA
HETATM   20  O   UNL     1      41.953  44.876  56.700  1.00  0.00    -0.594 OA
HETATM   21  O   UNL     1      41.163  42.627  56.074  1.00  0.00    -0.594 OA
ENDBRANCH  17  18
ENDBRANCH   3  17
BRANCH   4  22
HETATM   22  O   UNL     1      38.552  41.847  51.137  1.00  0.00    -0.380 OA
HETATM   23  H   UNL     1      38.363  40.886  51.178  1.00  0.00     0.211 HD
ENDBRANCH   4  22
BRANCH   2  24
HETATM   24  O   UNL     1      40.475  42.126  53.061  1.00  0.00    -0.380 OA
HETATM   25  H   UNL     1      40.445  41.617  53.912  1.00  0.00     0.211 HD
ENDBRANCH   2  24
TORSDOF 11
ENDMDL
MODEL 7
REMARK VINA RESULT:    -4.841      4.277      7.806
REMARK INTER + INTRA:          -8.158
REMARK INTER:                  -6.895
REMARK INTRA:                  -1.263
REMARK UNBOUND:                -0.911
REMARK  11 active torsions:
REMARK  status: ('A' for Active; 'I' for Inactive)
REMARK    1  A    between atoms: S_1  and  C_17 
REMARK    2  A    between atoms: O_3  and  C_16 
REMARK    3  A    between atoms: O_3  and  C_18 
REMARK    4  A    between atoms: O_4  and  C_12 
REMARK    5  A    between atoms: O_5  and  C_14 
REMARK    6  A    between atoms: O_6  and  C_15 
REMARK    7  A    between atoms: O_10  and  C_19 
REMARK    8  A    between atoms: O_11  and  C_20 
REMARK    9  A    between atoms: C_13  and  C_17 
REMARK   10  A    between atoms: C_18  and  C_19 
REMARK   11  A    between atoms: C_19  and  C_20 
ROOT
HETATM    1  O   UNL     1      43.268  38.875  41.658  1.00  0.00    -0.328 OA
HETATM    2  C   UNL     1      45.438  38.931  40.528  1.00  0.00     0.168 C 
HETATM    3  C   UNL     1      44.690  38.650  41.849  1.00  0.00     0.166 C 
HETATM    4  C   UNL     1      44.832  38.086  39.391  1.00  0.00     0.172 C 
HETATM    5  C   UNL     1      43.313  38.245  39.305  1.00  0.00     0.197 C 
HETATM    6  C   UNL     1      42.686  38.008  40.689  1.00  0.00     0.266 C 
ENDROOT
BRANCH   6   7
HETATM    7  O   UNL     1      42.835  36.631  41.062  1.00  0.00    -0.326 OA
BRANCH   7   8
HETATM    8  C   UNL     1      41.737  36.182  41.861  1.00  0.00     0.177 C 
BRANCH   8   9
HETATM    9  C   UNL     1      40.961  35.080  41.140  1.00  0.00     0.170 C 
BRANCH   9  10
HETATM   10  O   UNL     1      40.259  34.275  42.100  1.00  0.00    -0.380 OA
HETATM   11  H   UNL     1      39.334  34.594  42.037  1.00  0.00     0.211 HD
ENDBRANCH   9  10
BRANCH   9  12
HETATM   12  C   UNL     1      41.895  34.177  40.328  1.00  0.00     0.169 C 
BRANCH  12  13
HETATM   13  O   UNL     1      42.027  34.714  39.006  1.00  0.00    -0.380 OA
HETATM   14  H   UNL     1      42.044  33.920  38.434  1.00  0.00     0.211 HD
ENDBRANCH  12  13
ENDBRANCH   9  12
ENDBRANCH   8   9
ENDBRANCH   7   8
ENDBRANCH   6   7
BRANCH   5  15
HETATM   15  O   UNL     1      42.748  37.330  38.349  1.00  0.00    -0.378 OA
HETATM   16  H   UNL     1      42.490  36.540  38.862  1.00  0.00     0.211 HD
ENDBRANCH   5  15
BRANCH   3  17
HETATM   17  C   UNL     1      45.103  39.548  43.011  1.00  0.00     0.178 C 
BRANCH  17  18
HETATM   18  S   UNL     1      46.000  38.671  44.261  1.00  0.00     0.118 S 
HETATM   19  O   UNL     1      44.932  38.039  45.031  1.00  0.00    -0.594 OA
HETATM   20  O   UNL     1      46.727  39.721  44.970  1.00  0.00    -0.594 OA
HETATM   21  O   UNL     1      46.832  37.752  43.492  1.00  0.00    -0.594 OA
ENDBRANCH  17  18
ENDBRANCH   3  17
BRANCH   4  22
HETATM   22  O   UNL     1      45.456  38.477  38.153  1.00  0.00    -0.380 OA
HETATM   23  H   UNL     1      46.008  39.248  38.406  1.00  0.00     0.211 HD
ENDBRANCH   4  22
BRANCH   2  24
HETATM   24  O   UNL     1      46.835  38.624  40.509  1.00  0.00    -0.380 OA
HETATM   25  H   UNL     1      47.358  39.446  40.322  1.00  0.00     0.211 HD
ENDBRANCH   2  24
TORSDOF 11
ENDMDL
MODEL 8
REMARK VINA RESULT:    -4.772      9.704     11.646
REMARK INTER + INTRA:          -8.054
REMARK INTER:                  -6.244
REMARK INTRA:                  -1.809
REMARK UNBOUND:                -0.911
REMARK  11 active torsions:
REMARK  status: ('A' for Active; 'I' for Inactive)
REMARK    1  A    between atoms: S_1  and  C_17 
REMARK    2  A    between atoms: O_3  and  C_16 
REMARK    3  A    between atoms: O_3  and  C_18 
REMARK    4  A    between atoms: O_4  and  C_12 
REMARK    5  A    between atoms: O_5  and  C_14 
REMARK    6  A    between atoms: O_6  and  C_15 
REMARK    7  A    between atoms: O_10  and  C_19 
REMARK    8  A    between atoms: O_11  and  C_20 
REMARK    9  A    between atoms: C_13  and  C_17 
REMARK   10  A    between atoms: C_18  and  C_19 
REMARK   11  A    between atoms: C_19  and  C_20 
ROOT
HETATM    1  O   UNL     1      38.316  42.427  55.578  1.00  0.00    -0.328 OA
HETATM    2  C   UNL     1      40.634  42.546  56.351  1.00  0.00     0.168 C 
HETATM    3  C   UNL     1      39.552  41.672  55.681  1.00  0.00     0.166 C 
HETATM    4  C   UNL     1      40.790  43.872  55.581  1.00  0.00     0.172 C 
HETATM    5  C   UNL     1      39.447  44.575  55.372  1.00  0.00     0.197 C 
HETATM    6  C   UNL     1      38.433  43.591  54.765  1.00  0.00     0.266 C 
ENDROOT
BRANCH   6   7
HETATM    7  O   UNL     1      38.822  43.257  53.426  1.00  0.00    -0.326 OA
BRANCH   7   8
HETATM    8  C   UNL     1      37.686  42.964  52.607  1.00  0.00     0.177 C 
BRANCH   8   9
HETATM    9  C   UNL     1      37.777  41.544  52.048  1.00  0.00     0.170 C 
BRANCH   9  10
HETATM   10  O   UNL     1      37.660  40.594  53.119  1.00  0.00    -0.380 OA
HETATM   11  H   UNL     1      37.041  41.026  53.744  1.00  0.00     0.211 HD
ENDBRANCH   9  10
BRANCH   9  12
HETATM   12  C   UNL     1      39.108  41.311  51.326  1.00  0.00     0.169 C 
BRANCH  12  13
HETATM   13  O   UNL     1      40.141  41.133  52.303  1.00  0.00    -0.380 OA
HETATM   14  H   UNL     1      40.081  41.940  52.854  1.00  0.00     0.211 HD
ENDBRANCH  12  13
ENDBRANCH   9  12
ENDBRANCH   8   9
ENDBRANCH   7   8
ENDBRANCH   6   7
BRANCH   5  15
HETATM   15  O   UNL     1      39.588  45.723  54.516  1.00  0.00    -0.378 OA
HETATM   16  H   UNL     1      40.467  45.633  54.100  1.00  0.00     0.211 HD
ENDBRANCH   5  15
BRANCH   3  17
HETATM   17  C   UNL     1      39.203  40.402  56.450  1.00  0.00     0.178 C 
BRANCH  17  18
HETATM   18  S   UNL     1      39.968  38.961  55.763  1.00  0.00     0.118 S 
HETATM   19  O   UNL     1      39.808  39.174  54.327  1.00  0.00    -0.594 OA
HETATM   20  O   UNL     1      39.183  37.856  56.308  1.00  0.00    -0.594 OA
HETATM   21  O   UNL     1      41.340  39.047  56.249  1.00  0.00    -0.594 OA
ENDBRANCH  17  18
ENDBRANCH   3  17
BRANCH   4  22
HETATM   22  O   UNL     1      41.699  44.717  56.312  1.00  0.00    -0.380 OA
HETATM   23  H   UNL     1      42.583  44.389  56.045  1.00  0.00     0.211 HD
ENDBRANCH   4  22
BRANCH   2  24
HETATM   24  O   UNL     1      41.954  41.997  56.405  1.00  0.00    -0.380 OA
HETATM   25  H   UNL     1      42.141  41.658  57.319  1.00  0.00     0.211 HD
ENDBRANCH   2  24
TORSDOF 11
ENDMDL
MODEL 9
REMARK VINA RESULT:    -4.552      5.205      7.454
REMARK INTER + INTRA:          -7.725
REMARK INTER:                  -6.236
REMARK INTRA:                  -1.489
REMARK UNBOUND:                -0.911
REMARK  11 active torsions:
REMARK  status: ('A' for Active; 'I' for Inactive)
REMARK    1  A    between atoms: S_1  and  C_17 
REMARK    2  A    between atoms: O_3  and  C_16 
REMARK    3  A    between atoms: O_3  and  C_18 
REMARK    4  A    between atoms: O_4  and  C_12 
REMARK    5  A    between atoms: O_5  and  C_14 
REMARK    6  A    between atoms: O_6  and  C_15 
REMARK    7  A    between atoms: O_10  and  C_19 
REMARK    8  A    between atoms: O_11  and  C_20 
REMARK    9  A    between atoms: C_13  and  C_17 
REMARK   10  A    between atoms: C_18  and  C_19 
REMARK   11  A    between atoms: C_19  and  C_20 
ROOT
HETATM    1  O   UNL     1      45.354  35.507  41.480  1.00  0.00    -0.328 OA
HETATM    2  C   UNL     1      43.965  36.786  39.925  1.00  0.00     0.168 C 
HETATM    3  C   UNL     1      44.019  36.039  41.275  1.00  0.00     0.166 C 
HETATM    4  C   UNL     1      45.066  37.862  39.875  1.00  0.00     0.172 C 
HETATM    5  C   UNL     1      46.441  37.292  40.228  1.00  0.00     0.197 C 
HETATM    6  C   UNL     1      46.358  36.515  41.553  1.00  0.00     0.266 C 
ENDROOT
BRANCH   6   7
HETATM    7  O   UNL     1      46.109  37.423  42.634  1.00  0.00    -0.326 OA
BRANCH   7   8
HETATM    8  C   UNL     1      46.990  37.181  43.736  1.00  0.00     0.177 C 
BRANCH   8   9
HETATM    9  C   UNL     1      46.239  37.297  45.062  1.00  0.00     0.170 C 
BRANCH   9  10
HETATM   10  O   UNL     1      47.147  37.079  46.153  1.00  0.00    -0.380 OA
HETATM   11  H   UNL     1      47.216  36.103  46.205  1.00  0.00     0.211 HD
ENDBRANCH   9  10
BRANCH   9  12
HETATM   12  C   UNL     1      45.104  36.271  45.154  1.00  0.00     0.169 C 
BRANCH  12  13
HETATM   13  O   UNL     1      43.910  36.850  44.611  1.00  0.00    -0.380 OA
HETATM   14  H   UNL     1      43.983  36.673  43.650  1.00  0.00     0.211 HD
ENDBRANCH  12  13
ENDBRANCH   9  12
ENDBRANCH   8   9
ENDBRANCH   7   8
ENDBRANCH   6   7
BRANCH   5  15
HETATM   15  O   UNL     1      47.426  38.336  40.335  1.00  0.00    -0.378 OA
HETATM   16  H   UNL     1      48.102  38.129  39.661  1.00  0.00     0.211 HD
ENDBRANCH   5  15
BRANCH   3  17
HETATM   17  C   UNL     1      43.074  34.846  41.374  1.00  0.00     0.178 C 
BRANCH  17  18
HETATM   18  S   UNL     1      41.697  35.158  42.443  1.00  0.00     0.118 S 
HETATM   19  O   UNL     1      42.131  34.552  43.700  1.00  0.00    -0.594 OA
HETATM   20  O   UNL     1      40.585  34.476  41.787  1.00  0.00    -0.594 OA
HETATM   21  O   UNL     1      41.610  36.614  42.459  1.00  0.00    -0.594 OA
ENDBRANCH  17  18
ENDBRANCH   3  17
BRANCH   4  22
HETATM   22  O   UNL     1      45.079  38.439  38.555  1.00  0.00    -0.380 OA
HETATM   23  H   UNL     1      44.380  37.940  38.080  1.00  0.00     0.211 HD
ENDBRANCH   4  22
BRANCH   2  24
HETATM   24  O   UNL     1      42.753  37.489  39.634  1.00  0.00    -0.380 OA
HETATM   25  H   UNL     1      42.484  37.322  38.693  1.00  0.00     0.211 HD
ENDBRANCH   2  24
TORSDOF 11
ENDMDL
MODEL 10
REMARK VINA RESULT:    -4.427      4.033      6.552
REMARK INTER + INTRA:          -7.538
REMARK INTER:                  -5.830
REMARK INTRA:                  -1.707
REMARK UNBOUND:                -0.911
REMARK  11 active torsions:
REMARK  status: ('A' for Active; 'I' for Inactive)
REMARK    1  A    between atoms: S_1  and  C_17 
REMARK    2  A    between atoms: O_3  and  C_16 
REMARK    3  A    between atoms: O_3  and  C_18 
REMARK    4  A    between atoms: O_4  and  C_12 
REMARK    5  A    between atoms: O_5  and  C_14 
REMARK    6  A    between atoms: O_6  and  C_15 
REMARK    7  A    between atoms: O_10  and  C_19 
REMARK    8  A    between atoms: O_11  and  C_20 
REMARK    9  A    between atoms: C_13  and  C_17 
REMARK   10  A    between atoms: C_18  and  C_19 
REMARK   11  A    between atoms: C_19  and  C_20 
ROOT
HETATM    1  O   UNL     1      43.456  35.798  43.369  1.00  0.00    -0.328 OA
HETATM    2  C   UNL     1      41.832  36.224  45.148  1.00  0.00     0.168 C 
HETATM    3  C   UNL     1      43.065  36.756  44.387  1.00  0.00     0.166 C 
HETATM    4  C   UNL     1      40.703  35.893  44.154  1.00  0.00     0.172 C 
HETATM    5  C   UNL     1      41.185  34.989  43.018  1.00  0.00     0.197 C 
HETATM    6  C   UNL     1      42.452  35.584  42.381  1.00  0.00     0.266 C 
ENDROOT
BRANCH   6   7
HETATM    7  O   UNL     1      42.126  36.800  41.695  1.00  0.00    -0.326 OA
BRANCH   7   8
HETATM    8  C   UNL     1      43.011  37.036  40.596  1.00  0.00     0.177 C 
BRANCH   8   9
HETATM    9  C   UNL     1      43.932  38.220  40.890  1.00  0.00     0.170 C 
BRANCH   9  10
HETATM   10  O   UNL     1      45.033  37.786  41.703  1.00  0.00    -0.380 OA
HETATM   11  H   UNL     1      44.986  36.808  41.654  1.00  0.00     0.211 HD
ENDBRANCH   9  10
BRANCH   9  12
HETATM   12  C   UNL     1      43.187  39.339  41.625  1.00  0.00     0.169 C 
BRANCH  12  13
HETATM   13  O   UNL     1      44.133  40.335  42.034  1.00  0.00    -0.380 OA
HETATM   14  H   UNL     1      44.377  40.064  42.942  1.00  0.00     0.211 HD
ENDBRANCH  12  13
ENDBRANCH   9  12
ENDBRANCH   8   9
ENDBRANCH   7   8
ENDBRANCH   6   7
BRANCH   5  15
HETATM   15  O   UNL     1      40.166  34.823  42.016  1.00  0.00    -0.378 OA
HETATM   16  H   UNL     1      39.795  35.714  41.869  1.00  0.00     0.211 HD
ENDBRANCH   5  15
BRANCH   3  17
HETATM   17  C   UNL     1      44.300  36.969  45.257  1.00  0.00     0.178 C 
BRANCH  17  18
HETATM   18  S   UNL     1      44.715  38.681  45.439  1.00  0.00     0.118 S 
HETATM   19  O   UNL     1      43.402  39.319  45.495  1.00  0.00    -0.594 OA
HETATM   20  O   UNL     1      45.490  38.980  44.238  1.00  0.00    -0.594 OA
HETATM   21  O   UNL     1      45.468  38.711  46.688  1.00  0.00    -0.594 OA
ENDBRANCH  17  18
ENDBRANCH   3  17
BRANCH   4  22
HETATM   22  O   UNL     1      39.627  35.268  44.880  1.00  0.00    -0.380 OA
HETATM   23  H   UNL     1      40.057  34.502  45.315  1.00  0.00     0.211 HD
ENDBRANCH   4  22
BRANCH   2  24
HETATM   24  O   UNL     1      41.235  37.113  46.098  1.00  0.00    -0.380 OA
HETATM   25  H   UNL     1      40.248  37.094  46.003  1.00  0.00     0.211 HD
ENDBRANCH   2  24
TORSDOF 11
ENDMDL
