MODEL 1
REMARK VINA RESULT:    -5.525      0.000      0.000
REMARK INTER + INTRA:          -7.022
REMARK INTER:                  -6.817
REMARK INTRA:                  -0.205
REMARK UNBOUND:                -0.205
REMARK  6 active torsions:
REMARK  status: ('A' for Active; 'I' for Inactive)
REMARK    1  A    between atoms: S_1  and  C_15 
REMARK    2  A    between atoms: O_3  and  C_10 
REMARK    3  A    between atoms: O_4  and  C_12 
REMARK    4  A    between atoms: O_5  and  C_13 
REMARK    5  A    between atoms: O_6  and  C_14 
REMARK    6  A    between atoms: C_11  and  C_15 
ROOT
HETATM    1  O   UNL     1      41.990  37.867  47.649  1.00  0.00    -0.328 OA
HETATM    2  C   UNL     1      44.225  38.830  47.272  1.00  0.00     0.168 C 
HETATM    3  C   UNL     1      42.694  39.058  47.205  1.00  0.00     0.166 C 
HETATM    4  C   UNL     1      44.643  38.298  48.655  1.00  0.00     0.172 C 
HETATM    5  C   UNL     1      43.809  37.090  49.079  1.00  0.00     0.197 C 
HETATM    6  C   UNL     1      42.321  37.438  48.955  1.00  0.00     0.263 C 
ENDROOT
BRANCH   3   7
HETATM    7  C   UNL     1      42.161  39.303  45.794  1.00  0.00     0.178 C 
BRANCH   7   8
HETATM    8  S   UNL     1      40.868  40.500  45.702  1.00  0.00     0.118 S 
HETATM    9  O   UNL     1      40.948  41.162  47.003  1.00  0.00    -0.594 OA
HETATM   10  O   UNL     1      41.266  41.330  44.570  1.00  0.00    -0.594 OA
HETATM   11  O   UNL     1      39.670  39.694  45.491  1.00  0.00    -0.594 OA
ENDBRANCH   7   8
ENDBRANCH   3   7
BRANCH   2  12
HETATM   12  O   UNL     1      45.030  39.998  47.082  1.00  0.00    -0.380 OA
HETATM   13  H   UNL     1      45.979  39.719  46.997  1.00  0.00     0.211 HD
ENDBRANCH   2  12
BRANCH   6  14
HETATM   14  O   UNL     1      41.967  38.434  49.907  1.00  0.00    -0.359 OA
HETATM   15  H   UNL     1      42.817  38.712  50.292  1.00  0.00     0.213 HD
ENDBRANCH   6  14
BRANCH   4  16
HETATM   16  O   UNL     1      46.042  37.959  48.605  1.00  0.00    -0.380 OA
HETATM   17  H   UNL     1      46.491  38.816  48.764  1.00  0.00     0.211 HD
ENDBRANCH   4  16
BRANCH   5  18
HETATM   18  O   UNL     1      44.101  36.708  50.436  1.00  0.00    -0.378 OA
HETATM   19  H   UNL     1      44.986  37.080  50.620  1.00  0.00     0.211 HD
ENDBRANCH   5  18
TORSDOF 6
ENDMDL
MODEL 2
REMARK VINA RESULT:    -5.267      2.093      2.732
REMARK INTER + INTRA:          -6.703
REMARK INTER:                  -6.325
REMARK INTRA:                  -0.378
REMARK UNBOUND:                -0.205
REMARK  6 active torsions:
REMARK  status: ('A' for Active; 'I' for Inactive)
REMARK    1  A    between atoms: S_1  and  C_15 
REMARK    2  A    between atoms: O_3  and  C_10 
REMARK    3  A    between atoms: O_4  and  C_12 
REMARK    4  A    between atoms: O_5  and  C_13 
REMARK    5  A    between atoms: O_6  and  C_14 
REMARK    6  A    between atoms: C_11  and  C_15 
ROOT
HETATM    1  O   UNL     1      42.171  39.626  47.362  1.00  0.00    -0.328 OA
HETATM    2  C   UNL     1      44.252  38.329  47.147  1.00  0.00     0.168 C 
HETATM    3  C   UNL     1      43.429  39.539  46.642  1.00  0.00     0.166 C 
HETATM    4  C   UNL     1      44.375  38.348  48.682  1.00  0.00     0.172 C 
HETATM    5  C   UNL     1      43.017  38.511  49.363  1.00  0.00     0.197 C 
HETATM    6  C   UNL     1      42.300  39.729  48.766  1.00  0.00     0.263 C 
ENDROOT
BRANCH   3   7
HETATM    7  C   UNL     1      43.014  39.443  45.174  1.00  0.00     0.178 C 
BRANCH   7   8
HETATM    8  S   UNL     1      44.055  40.333  44.063  1.00  0.00     0.118 S 
HETATM    9  O   UNL     1      44.462  39.304  43.107  1.00  0.00    -0.594 OA
HETATM   10  O   UNL     1      43.163  41.352  43.519  1.00  0.00    -0.594 OA
HETATM   11  O   UNL     1      45.122  40.836  44.921  1.00  0.00    -0.594 OA
ENDBRANCH   7   8
ENDBRANCH   3   7
BRANCH   2  12
HETATM   12  O   UNL     1      45.605  38.266  46.684  1.00  0.00    -0.380 OA
HETATM   13  H   UNL     1      46.048  39.133  46.877  1.00  0.00     0.211 HD
ENDBRANCH   2  12
BRANCH   6  14
HETATM   14  O   UNL     1      42.989  40.924  49.113  1.00  0.00    -0.359 OA
HETATM   15  H   UNL     1      43.663  41.024  48.417  1.00  0.00     0.213 HD
ENDBRANCH   6  14
BRANCH   4  16
HETATM   16  O   UNL     1      45.010  37.124  49.100  1.00  0.00    -0.380 OA
HETATM   17  H   UNL     1      44.831  37.091  50.064  1.00  0.00     0.211 HD
ENDBRANCH   4  16
BRANCH   5  18
HETATM   18  O   UNL     1      43.166  38.690  50.783  1.00  0.00    -0.378 OA
HETATM   19  H   UNL     1      43.516  39.596  50.889  1.00  0.00     0.211 HD
ENDBRANCH   5  18
TORSDOF 6
ENDMDL
MODEL 3
REMARK VINA RESULT:    -4.950     11.495     13.709
REMARK INTER + INTRA:          -6.313
REMARK INTER:                  -5.875
REMARK INTRA:                  -0.438
REMARK UNBOUND:                -0.205
REMARK  6 active torsions:
REMARK  status: ('A' for Active; 'I' for Inactive)
REMARK    1  A    between atoms: S_1  and  C_15 
REMARK    2  A    between atoms: O_3  and  C_10 
REMARK    3  A    between atoms: O_4  and  C_12 
REMARK    4  A    between atoms: O_5  and  C_13 
REMARK    5  A    between atoms: O_6  and  C_14 
REMARK    6  A    between atoms: C_11  and  C_15 
ROOT
HETATM    1  O   UNL     1      39.387  46.838  36.703  1.00  0.00    -0.328 OA
HETATM    2  C   UNL     1      41.244  47.714  38.062  1.00  0.00     0.168 C 
HETATM    3  C   UNL     1      39.955  48.047  37.273  1.00  0.00     0.166 C 
HETATM    4  C   UNL     1      40.997  46.571  39.064  1.00  0.00     0.172 C 
HETATM    5  C   UNL     1      40.335  45.363  38.402  1.00  0.00     0.197 C 
HETATM    6  C   UNL     1      39.085  45.827  37.645  1.00  0.00     0.263 C 
ENDROOT
BRANCH   3   7
HETATM    7  C   UNL     1      40.180  48.959  36.066  1.00  0.00     0.178 C 
BRANCH   7   8
HETATM    8  S   UNL     1      40.441  50.655  36.473  1.00  0.00     0.118 S 
HETATM    9  O   UNL     1      41.899  50.774  36.439  1.00  0.00    -0.594 OA
HETATM   10  O   UNL     1      39.747  51.363  35.402  1.00  0.00    -0.594 OA
HETATM   11  O   UNL     1      39.842  50.786  37.796  1.00  0.00    -0.594 OA
ENDBRANCH   7   8
ENDBRANCH   3   7
BRANCH   2  12
HETATM   12  O   UNL     1      41.772  48.778  38.861  1.00  0.00    -0.380 OA
HETATM   13  H   UNL     1      41.221  49.590  38.712  1.00  0.00     0.211 HD
ENDBRANCH   2  12
BRANCH   6  14
HETATM   14  O   UNL     1      38.097  46.285  38.560  1.00  0.00    -0.359 OA
HETATM   15  H   UNL     1      38.032  47.241  38.387  1.00  0.00     0.213 HD
ENDBRANCH   6  14
BRANCH   4  16
HETATM   16  O   UNL     1      42.260  46.201  39.650  1.00  0.00    -0.380 OA
HETATM   17  H   UNL     1      42.194  46.541  40.568  1.00  0.00     0.211 HD
ENDBRANCH   4  16
BRANCH   5  18
HETATM   18  O   UNL     1      39.964  44.374  39.380  1.00  0.00    -0.378 OA
HETATM   19  H   UNL     1      40.710  44.347  40.010  1.00  0.00     0.211 HD
ENDBRANCH   5  18
TORSDOF 6
ENDMDL
MODEL 4
REMARK VINA RESULT:    -4.736     26.783     27.928
REMARK INTER + INTRA:          -6.049
REMARK INTER:                  -5.566
REMARK INTRA:                  -0.483
REMARK UNBOUND:                -0.205
REMARK  6 active torsions:
REMARK  status: ('A' for Active; 'I' for Inactive)
REMARK    1  A    between atoms: S_1  and  C_15 
REMARK    2  A    between atoms: O_3  and  C_10 
REMARK    3  A    between atoms: O_4  and  C_12 
REMARK    4  A    between atoms: O_5  and  C_13 
REMARK    5  A    between atoms: O_6  and  C_14 
REMARK    6  A    between atoms: C_11  and  C_15 
ROOT
HETATM    1  O   UNL     1      41.008  67.534  49.441  1.00  0.00    -0.328 OA
HETATM    2  C   UNL     1      41.209  66.532  51.681  1.00  0.00     0.168 C 
HETATM    3  C   UNL     1      40.515  66.470  50.299  1.00  0.00     0.166 C 
HETATM    4  C   UNL     1      42.740  66.592  51.526  1.00  0.00     0.172 C 
HETATM    5  C   UNL     1      43.174  67.690  50.556  1.00  0.00     0.197 C 
HETATM    6  C   UNL     1      42.407  67.527  49.238  1.00  0.00     0.263 C 
ENDROOT
BRANCH   3   7
HETATM    7  C   UNL     1      39.004  66.700  50.349  1.00  0.00     0.178 C 
BRANCH   7   8
HETATM    8  S   UNL     1      38.061  65.266  50.754  1.00  0.00     0.118 S 
HETATM    9  O   UNL     1      38.961  64.174  50.384  1.00  0.00    -0.594 OA
HETATM   10  O   UNL     1      37.838  65.411  52.189  1.00  0.00    -0.594 OA
HETATM   11  O   UNL     1      36.870  65.392  49.923  1.00  0.00    -0.594 OA
ENDBRANCH   7   8
ENDBRANCH   3   7
BRANCH   2  12
HETATM   12  O   UNL     1      40.983  65.406  52.536  1.00  0.00    -0.380 OA
HETATM   13  H   UNL     1      41.682  64.724  52.355  1.00  0.00     0.211 HD
ENDBRANCH   2  12
BRANCH   6  14
HETATM   14  O   UNL     1      42.805  66.330  48.581  1.00  0.00    -0.359 OA
HETATM   15  H   UNL     1      42.304  66.335  47.747  1.00  0.00     0.213 HD
ENDBRANCH   6  14
BRANCH   4  16
HETATM   16  O   UNL     1      43.319  66.806  52.828  1.00  0.00    -0.380 OA
HETATM   17  H   UNL     1      42.587  66.585  53.443  1.00  0.00     0.211 HD
ENDBRANCH   4  16
BRANCH   5  18
HETATM   18  O   UNL     1      44.589  67.626  50.299  1.00  0.00    -0.378 OA
HETATM   19  H   UNL     1      44.983  67.293  51.128  1.00  0.00     0.211 HD
ENDBRANCH   5  18
TORSDOF 6
ENDMDL
MODEL 5
REMARK VINA RESULT:    -4.728     11.664     12.964
REMARK INTER + INTRA:          -6.039
REMARK INTER:                  -5.562
REMARK INTRA:                  -0.478
REMARK UNBOUND:                -0.205
REMARK  6 active torsions:
REMARK  status: ('A' for Active; 'I' for Inactive)
REMARK    1  A    between atoms: S_1  and  C_15 
REMARK    2  A    between atoms: O_3  and  C_10 
REMARK    3  A    between atoms: O_4  and  C_12 
REMARK    4  A    between atoms: O_5  and  C_13 
REMARK    5  A    between atoms: O_6  and  C_14 
REMARK    6  A    between atoms: C_11  and  C_15 
ROOT
HETATM    1  O   UNL     1      42.840  47.278  36.695  1.00  0.00    -0.328 OA
HETATM    2  C   UNL     1      42.196  47.940  38.977  1.00  0.00     0.168 C 
HETATM    3  C   UNL     1      42.156  46.832  37.896  1.00  0.00     0.166 C 
HETATM    4  C   UNL     1      43.634  48.448  39.192  1.00  0.00     0.172 C 
HETATM    5  C   UNL     1      44.308  48.831  37.875  1.00  0.00     0.197 C 
HETATM    6  C   UNL     1      44.187  47.661  36.890  1.00  0.00     0.263 C 
ENDROOT
BRANCH   3   7
HETATM    7  C   UNL     1      40.747  46.481  37.416  1.00  0.00     0.178 C 
BRANCH   7   8
HETATM    8  S   UNL     1      39.874  45.369  38.471  1.00  0.00     0.118 S 
HETATM    9  O   UNL     1      39.099  44.568  37.524  1.00  0.00    -0.594 OA
HETATM   10  O   UNL     1      40.945  44.646  39.148  1.00  0.00    -0.594 OA
HETATM   11  O   UNL     1      39.086  46.253  39.322  1.00  0.00    -0.594 OA
ENDBRANCH   7   8
ENDBRANCH   3   7
BRANCH   2  12
HETATM   12  O   UNL     1      41.761  47.544  40.282  1.00  0.00    -0.380 OA
HETATM   13  H   UNL     1      40.888  47.080  40.199  1.00  0.00     0.211 HD
ENDBRANCH   2  12
BRANCH   6  14
HETATM   14  O   UNL     1      44.954  46.553  37.344  1.00  0.00    -0.359 OA
HETATM   15  H   UNL     1      44.655  45.810  36.791  1.00  0.00     0.213 HD
ENDBRANCH   6  14
BRANCH   4  16
HETATM   16  O   UNL     1      43.587  49.576  40.086  1.00  0.00    -0.380 OA
HETATM   17  H   UNL     1      43.771  49.180  40.964  1.00  0.00     0.211 HD
ENDBRANCH   4  16
BRANCH   5  18
HETATM   18  O   UNL     1      45.698  49.146  38.076  1.00  0.00    -0.378 OA
HETATM   19  H   UNL     1      45.707  50.076  38.377  1.00  0.00     0.211 HD
ENDBRANCH   5  18
TORSDOF 6
ENDMDL
MODEL 6
REMARK VINA RESULT:    -4.714      2.075      2.560
REMARK INTER + INTRA:          -6.022
REMARK INTER:                  -5.645
REMARK INTRA:                  -0.376
REMARK UNBOUND:                -0.205
REMARK  6 active torsions:
REMARK  status: ('A' for Active; 'I' for Inactive)
REMARK    1  A    between atoms: S_1  and  C_15 
REMARK    2  A    between atoms: O_3  and  C_10 
REMARK    3  A    between atoms: O_4  and  C_12 
REMARK    4  A    between atoms: O_5  and  C_13 
REMARK    5  A    between atoms: O_6  and  C_14 
REMARK    6  A    between atoms: C_11  and  C_15 
ROOT
HETATM    1  O   UNL     1      42.083  39.563  47.025  1.00  0.00    -0.328 OA
HETATM    2  C   UNL     1      44.071  38.226  46.455  1.00  0.00     0.168 C 
HETATM    3  C   UNL     1      43.229  39.486  46.136  1.00  0.00     0.166 C 
HETATM    4  C   UNL     1      44.400  38.151  47.958  1.00  0.00     0.172 C 
HETATM    5  C   UNL     1      43.153  38.309  48.826  1.00  0.00     0.197 C 
HETATM    6  C   UNL     1      42.404  39.578  48.402  1.00  0.00     0.263 C 
ENDROOT
BRANCH   3   7
HETATM    7  C   UNL     1      42.616  39.488  44.735  1.00  0.00     0.178 C 
BRANCH   7   8
HETATM    8  S   UNL     1      43.511  40.441  43.550  1.00  0.00     0.118 S 
HETATM    9  O   UNL     1      44.768  40.719  44.244  1.00  0.00    -0.594 OA
HETATM   10  O   UNL     1      43.629  39.531  42.416  1.00  0.00    -0.594 OA
HETATM   11  O   UNL     1      42.657  41.602  43.330  1.00  0.00    -0.594 OA
ENDBRANCH   7   8
ENDBRANCH   3   7
BRANCH   2  12
HETATM   12  O   UNL     1      45.346  38.157  45.809  1.00  0.00    -0.380 OA
HETATM   13  H   UNL     1      45.865  38.970  46.041  1.00  0.00     0.211 HD
ENDBRANCH   2  12
BRANCH   6  14
HETATM   14  O   UNL     1      43.173  40.732  48.717  1.00  0.00    -0.359 OA
HETATM   15  H   UNL     1      43.651  40.935  47.893  1.00  0.00     0.213 HD
ENDBRANCH   6  14
BRANCH   4  16
HETATM   16  O   UNL     1      45.044  36.888  48.216  1.00  0.00    -0.380 OA
HETATM   17  H   UNL     1      44.677  36.618  49.085  1.00  0.00     0.211 HD
ENDBRANCH   4  16
BRANCH   5  18
HETATM   18  O   UNL     1      43.499  38.398  50.220  1.00  0.00    -0.378 OA
HETATM   19  H   UNL     1      44.470  38.296  50.248  1.00  0.00     0.211 HD
ENDBRANCH   5  18
TORSDOF 6
ENDMDL
MODEL 7
REMARK VINA RESULT:    -4.609      2.824      3.890
REMARK INTER + INTRA:          -5.892
REMARK INTER:                  -5.524
REMARK INTRA:                  -0.368
REMARK UNBOUND:                -0.205
REMARK  6 active torsions:
REMARK  status: ('A' for Active; 'I' for Inactive)
REMARK    1  A    between atoms: S_1  and  C_15 
REMARK    2  A    between atoms: O_3  and  C_10 
REMARK    3  A    between atoms: O_4  and  C_12 
REMARK    4  A    between atoms: O_5  and  C_13 
REMARK    5  A    between atoms: O_6  and  C_14 
REMARK    6  A    between atoms: C_11  and  C_15 
ROOT
HETATM    1  O   UNL     1      44.423  38.860  47.271  1.00  0.00    -0.328 OA
HETATM    2  C   UNL     1      43.486  36.737  46.448  1.00  0.00     0.168 C 
HETATM    3  C   UNL     1      44.421  37.935  46.151  1.00  0.00     0.166 C 
HETATM    4  C   UNL     1      43.812  36.110  47.816  1.00  0.00     0.172 C 
HETATM    5  C   UNL     1      43.863  37.157  48.928  1.00  0.00     0.197 C 
HETATM    6  C   UNL     1      44.806  38.290  48.507  1.00  0.00     0.263 C 
ENDROOT
BRANCH   3   7
HETATM    7  C   UNL     1      43.982  38.789  44.962  1.00  0.00     0.178 C 
BRANCH   7   8
HETATM    8  S   UNL     1      44.862  38.465  43.468  1.00  0.00     0.118 S 
HETATM    9  O   UNL     1      43.831  38.628  42.444  1.00  0.00    -0.594 OA
HETATM   10  O   UNL     1      45.895  39.496  43.463  1.00  0.00    -0.594 OA
HETATM   11  O   UNL     1      45.347  37.101  43.645  1.00  0.00    -0.594 OA
ENDBRANCH   7   8
ENDBRANCH   3   7
BRANCH   2  12
HETATM   12  O   UNL     1      43.572  35.645  45.527  1.00  0.00    -0.380 OA
HETATM   13  H   UNL     1      44.385  35.115  45.737  1.00  0.00     0.211 HD
ENDBRANCH   2  12
BRANCH   6  14
HETATM   14  O   UNL     1      46.146  37.816  48.438  1.00  0.00    -0.359 OA
HETATM   15  H   UNL     1      46.682  38.622  48.335  1.00  0.00     0.213 HD
ENDBRANCH   6  14
BRANCH   4  16
HETATM   16  O   UNL     1      42.815  35.110  48.104  1.00  0.00    -0.380 OA
HETATM   17  H   UNL     1      43.255  34.532  48.764  1.00  0.00     0.211 HD
ENDBRANCH   4  16
BRANCH   5  18
HETATM   18  O   UNL     1      44.327  36.580  50.163  1.00  0.00    -0.378 OA
HETATM   19  H   UNL     1      43.824  37.040  50.863  1.00  0.00     0.211 HD
ENDBRANCH   5  18
TORSDOF 6
ENDMDL
MODEL 8
REMARK VINA RESULT:    -4.428      1.878      2.572
REMARK INTER + INTRA:          -5.669
REMARK INTER:                  -5.282
REMARK INTRA:                  -0.387
REMARK UNBOUND:                -0.205
REMARK  6 active torsions:
REMARK  status: ('A' for Active; 'I' for Inactive)
REMARK    1  A    between atoms: S_1  and  C_15 
REMARK    2  A    between atoms: O_3  and  C_10 
REMARK    3  A    between atoms: O_4  and  C_12 
REMARK    4  A    between atoms: O_5  and  C_13 
REMARK    5  A    between atoms: O_6  and  C_14 
REMARK    6  A    between atoms: C_11  and  C_15 
ROOT
HETATM    1  O   UNL     1      44.663  37.677  46.893  1.00  0.00    -0.328 OA
HETATM    2  C   UNL     1      43.541  39.582  47.978  1.00  0.00     0.168 C 
HETATM    3  C   UNL     1      43.704  38.748  46.683  1.00  0.00     0.166 C 
HETATM    4  C   UNL     1      43.253  38.672  49.186  1.00  0.00     0.172 C 
HETATM    5  C   UNL     1      44.264  37.531  49.297  1.00  0.00     0.197 C 
HETATM    6  C   UNL     1      44.342  36.798  47.953  1.00  0.00     0.263 C 
ENDROOT
BRANCH   3   7
HETATM    7  C   UNL     1      44.275  39.534  45.503  1.00  0.00     0.178 C 
BRANCH   7   8
HETATM    8  S   UNL     1      43.086  39.969  44.274  1.00  0.00     0.118 S 
HETATM    9  O   UNL     1      43.739  41.071  43.570  1.00  0.00    -0.594 OA
HETATM   10  O   UNL     1      42.952  38.742  43.495  1.00  0.00    -0.594 OA
HETATM   11  O   UNL     1      41.910  40.343  45.052  1.00  0.00    -0.594 OA
ENDBRANCH   7   8
ENDBRANCH   3   7
BRANCH   2  12
HETATM   12  O   UNL     1      42.461  40.521  47.975  1.00  0.00    -0.380 OA
HETATM   13  H   UNL     1      41.958  40.430  48.826  1.00  0.00     0.211 HD
ENDBRANCH   2  12
BRANCH   6  14
HETATM   14  O   UNL     1      43.116  36.128  47.685  1.00  0.00    -0.359 OA
HETATM   15  H   UNL     1      42.446  36.656  48.154  1.00  0.00     0.213 HD
ENDBRANCH   6  14
BRANCH   4  16
HETATM   16  O   UNL     1      43.268  39.483  50.377  1.00  0.00    -0.380 OA
HETATM   17  H   UNL     1      43.035  40.377  50.048  1.00  0.00     0.211 HD
ENDBRANCH   4  16
BRANCH   5  18
HETATM   18  O   UNL     1      43.886  36.602  50.330  1.00  0.00    -0.378 OA
HETATM   19  H   UNL     1      43.714  35.761  49.864  1.00  0.00     0.211 HD
ENDBRANCH   5  18
TORSDOF 6
ENDMDL
MODEL 9
REMARK VINA RESULT:    -4.308      6.127      8.296
REMARK INTER + INTRA:          -5.521
REMARK INTER:                  -5.073
REMARK INTRA:                  -0.448
REMARK UNBOUND:                -0.205
REMARK  6 active torsions:
REMARK  status: ('A' for Active; 'I' for Inactive)
REMARK    1  A    between atoms: S_1  and  C_15 
REMARK    2  A    between atoms: O_3  and  C_10 
REMARK    3  A    between atoms: O_4  and  C_12 
REMARK    4  A    between atoms: O_5  and  C_13 
REMARK    5  A    between atoms: O_6  and  C_14 
REMARK    6  A    between atoms: C_11  and  C_15 
ROOT
HETATM    1  O   UNL     1      45.893  41.176  42.580  1.00  0.00    -0.328 OA
HETATM    2  C   UNL     1      44.719  40.765  40.455  1.00  0.00     0.168 C 
HETATM    3  C   UNL     1      45.871  40.336  41.395  1.00  0.00     0.166 C 
HETATM    4  C   UNL     1      43.386  40.851  41.221  1.00  0.00     0.172 C 
HETATM    5  C   UNL     1      43.509  41.695  42.489  1.00  0.00     0.197 C 
HETATM    6  C   UNL     1      44.689  41.181  43.322  1.00  0.00     0.263 C 
ENDROOT
BRANCH   3   7
HETATM    7  C   UNL     1      47.266  40.506  40.791  1.00  0.00     0.178 C 
BRANCH   7   8
HETATM    8  S   UNL     1      47.793  39.156  39.785  1.00  0.00     0.118 S 
HETATM    9  O   UNL     1      47.415  39.590  38.441  1.00  0.00    -0.594 OA
HETATM   10  O   UNL     1      49.231  39.106  40.028  1.00  0.00    -0.594 OA
HETATM   11  O   UNL     1      47.035  38.024  40.305  1.00  0.00    -0.594 OA
ENDBRANCH   7   8
ENDBRANCH   3   7
BRANCH   2  12
HETATM   12  O   UNL     1      44.446  39.874  39.368  1.00  0.00    -0.380 OA
HETATM   13  H   UNL     1      44.432  38.944  39.714  1.00  0.00     0.211 HD
ENDBRANCH   2  12
BRANCH   6  14
HETATM   14  O   UNL     1      44.411  39.877  43.818  1.00  0.00    -0.359 OA
HETATM   15  H   UNL     1      44.886  39.282  43.212  1.00  0.00     0.213 HD
ENDBRANCH   6  14
BRANCH   4  16
HETATM   16  O   UNL     1      42.391  41.403  40.337  1.00  0.00    -0.380 OA
HETATM   17  H   UNL     1      42.713  41.152  39.445  1.00  0.00     0.211 HD
ENDBRANCH   4  16
BRANCH   5  18
HETATM   18  O   UNL     1      42.304  41.631  43.274  1.00  0.00    -0.378 OA
HETATM   19  H   UNL     1      42.249  42.495  43.727  1.00  0.00     0.211 HD
ENDBRANCH   5  18
TORSDOF 6
ENDMDL
MODEL 10
REMARK VINA RESULT:    -4.226      4.427      7.063
REMARK INTER + INTRA:          -5.419
REMARK INTER:                  -4.945
REMARK INTRA:                  -0.474
REMARK UNBOUND:                -0.205
REMARK  6 active torsions:
REMARK  status: ('A' for Active; 'I' for Inactive)
REMARK    1  A    between atoms: S_1  and  C_15 
REMARK    2  A    between atoms: O_3  and  C_10 
REMARK    3  A    between atoms: O_4  and  C_12 
REMARK    4  A    between atoms: O_5  and  C_13 
REMARK    5  A    between atoms: O_6  and  C_14 
REMARK    6  A    between atoms: C_11  and  C_15 
ROOT
HETATM    1  O   UNL     1      45.560  38.742  42.166  1.00  0.00    -0.328 OA
HETATM    2  C   UNL     1      43.738  40.331  42.631  1.00  0.00     0.168 C 
HETATM    3  C   UNL     1      44.973  39.586  43.192  1.00  0.00     0.166 C 
HETATM    4  C   UNL     1      44.078  41.047  41.311  1.00  0.00     0.172 C 
HETATM    5  C   UNL     1      44.754  40.110  40.311  1.00  0.00     0.197 C 
HETATM    6  C   UNL     1      45.947  39.426  40.990  1.00  0.00     0.263 C 
ENDROOT
BRANCH   3   7
HETATM    7  C   UNL     1      44.654  38.619  44.333  1.00  0.00     0.178 C 
BRANCH   7   8
HETATM    8  S   UNL     1      44.501  39.384  45.915  1.00  0.00     0.118 S 
HETATM    9  O   UNL     1      45.040  38.367  46.818  1.00  0.00    -0.594 OA
HETATM   10  O   UNL     1      45.326  40.581  45.784  1.00  0.00    -0.594 OA
HETATM   11  O   UNL     1      43.069  39.626  46.042  1.00  0.00    -0.594 OA
ENDBRANCH   7   8
ENDBRANCH   3   7
BRANCH   2  12
HETATM   12  O   UNL     1      43.208  41.365  43.468  1.00  0.00    -0.380 OA
HETATM   13  H   UNL     1      43.860  42.113  43.501  1.00  0.00     0.211 HD
ENDBRANCH   2  12
BRANCH   6  14
HETATM   14  O   UNL     1      46.960  40.380  41.285  1.00  0.00    -0.359 OA
HETATM   15  H   UNL     1      47.709  39.846  41.604  1.00  0.00     0.213 HD
ENDBRANCH   6  14
BRANCH   4  16
HETATM   16  O   UNL     1      42.861  41.586  40.761  1.00  0.00    -0.380 OA
HETATM   17  H   UNL     1      42.205  41.444  41.476  1.00  0.00     0.211 HD
ENDBRANCH   4  16
BRANCH   5  18
HETATM   18  O   UNL     1      45.211  40.831  39.151  1.00  0.00    -0.378 OA
HETATM   19  H   UNL     1      46.113  41.130  39.378  1.00  0.00     0.211 HD
ENDBRANCH   5  18
TORSDOF 6
ENDMDL
