MODEL 1
REMARK VINA RESULT:    -5.090      0.000      0.000
REMARK INTER + INTRA:          -6.664
REMARK INTER:                  -6.248
REMARK INTRA:                  -0.417
REMARK UNBOUND:                -0.384
REMARK  6 active torsions:
REMARK  status: ('A' for Active; 'I' for Inactive)
REMARK    1  A    between atoms: S_1  and  C_15 
REMARK    2  A    between atoms: O_3  and  C_10 
REMARK    3  A    between atoms: O_4  and  C_12 
REMARK    4  A    between atoms: O_5  and  C_13 
REMARK    5  A    between atoms: O_6  and  C_14 
REMARK    6  A    between atoms: C_11  and  C_15 
ROOT
HETATM    1  O   UNL     1      42.398  37.724  47.062  1.00  0.00    -0.328 OA
HETATM    2  C   UNL     1      42.406  39.930  48.157  1.00  0.00     0.168 C 
HETATM    3  C   UNL     1      41.709  39.001  47.133  1.00  0.00     0.166 C 
HETATM    4  C   UNL     1      42.601  39.214  49.507  1.00  0.00     0.172 C 
HETATM    5  C   UNL     1      43.268  37.850  49.340  1.00  0.00     0.197 C 
HETATM    6  C   UNL     1      42.495  37.037  48.294  1.00  0.00     0.263 C 
ENDROOT
BRANCH   3   7
HETATM    7  C   UNL     1      41.739  39.523  45.696  1.00  0.00     0.178 C 
BRANCH   7   8
HETATM    8  S   UNL     1      40.216  40.220  45.142  1.00  0.00     0.118 S 
HETATM    9  O   UNL     1      39.255  39.153  45.416  1.00  0.00    -0.594 OA
HETATM   10  O   UNL     1      40.069  41.403  45.983  1.00  0.00    -0.594 OA
HETATM   11  O   UNL     1      40.456  40.488  43.729  1.00  0.00    -0.594 OA
ENDBRANCH   7   8
ENDBRANCH   3   7
BRANCH   2  12
HETATM   12  O   UNL     1      41.694  41.126  48.490  1.00  0.00    -0.380 OA
HETATM   13  H   UNL     1      42.349  41.821  48.760  1.00  0.00     0.211 HD
ENDBRANCH   2  12
BRANCH   6  14
HETATM   14  O   UNL     1      41.199  36.713  48.782  1.00  0.00    -0.359 OA
HETATM   15  H   UNL     1      41.334  36.545  49.732  1.00  0.00     0.213 HD
ENDBRANCH   6  14
BRANCH   4  16
HETATM   16  O   UNL     1      43.389  40.065  50.361  1.00  0.00    -0.380 OA
HETATM   17  H   UNL     1      43.658  40.799  49.768  1.00  0.00     0.211 HD
ENDBRANCH   4  16
BRANCH   5  18
HETATM   18  O   UNL     1      43.294  37.128  50.585  1.00  0.00    -0.378 OA
HETATM   19  H   UNL     1      43.966  37.584  51.128  1.00  0.00     0.211 HD
ENDBRANCH   5  18
TORSDOF 6
ENDMDL
MODEL 2
REMARK VINA RESULT:    -4.724     11.441     12.676
REMARK INTER + INTRA:          -6.212
REMARK INTER:                  -5.775
REMARK INTRA:                  -0.437
REMARK UNBOUND:                -0.384
REMARK  6 active torsions:
REMARK  status: ('A' for Active; 'I' for Inactive)
REMARK    1  A    between atoms: S_1  and  C_15 
REMARK    2  A    between atoms: O_3  and  C_10 
REMARK    3  A    between atoms: O_4  and  C_12 
REMARK    4  A    between atoms: O_5  and  C_13 
REMARK    5  A    between atoms: O_6  and  C_14 
REMARK    6  A    between atoms: C_11  and  C_15 
ROOT
HETATM    1  O   UNL     1      42.679  47.306  36.687  1.00  0.00    -0.328 OA
HETATM    2  C   UNL     1      42.196  47.822  39.046  1.00  0.00     0.168 C 
HETATM    3  C   UNL     1      42.010  46.819  37.882  1.00  0.00     0.166 C 
HETATM    4  C   UNL     1      43.681  48.186  39.228  1.00  0.00     0.172 C 
HETATM    5  C   UNL     1      44.328  48.622  37.914  1.00  0.00     0.197 C 
HETATM    6  C   UNL     1      44.061  47.556  36.845  1.00  0.00     0.263 C 
ENDROOT
BRANCH   3   7
HETATM    7  C   UNL     1      40.557  46.629  37.446  1.00  0.00     0.178 C 
BRANCH   7   8
HETATM    8  S   UNL     1      39.647  45.479  38.425  1.00  0.00     0.118 S 
HETATM    9  O   UNL     1      38.830  46.349  39.270  1.00  0.00    -0.594 OA
HETATM   10  O   UNL     1      38.899  44.717  37.430  1.00  0.00    -0.594 OA
HETATM   11  O   UNL     1      40.684  44.732  39.128  1.00  0.00    -0.594 OA
ENDBRANCH   7   8
ENDBRANCH   3   7
BRANCH   2  12
HETATM   12  O   UNL     1      41.784  47.355  40.335  1.00  0.00    -0.380 OA
HETATM   13  H   UNL     1      42.557  47.413  40.956  1.00  0.00     0.211 HD
ENDBRANCH   2  12
BRANCH   6  14
HETATM   14  O   UNL     1      44.747  46.352  37.168  1.00  0.00    -0.359 OA
HETATM   15  H   UNL     1      45.019  46.472  38.095  1.00  0.00     0.213 HD
ENDBRANCH   6  14
BRANCH   4  16
HETATM   16  O   UNL     1      43.772  49.234  40.213  1.00  0.00    -0.380 OA
HETATM   17  H   UNL     1      44.263  48.814  40.950  1.00  0.00     0.211 HD
ENDBRANCH   4  16
BRANCH   5  18
HETATM   18  O   UNL     1      45.748  48.801  38.070  1.00  0.00    -0.378 OA
HETATM   19  H   UNL     1      45.977  48.320  38.889  1.00  0.00     0.211 HD
ENDBRANCH   5  18
TORSDOF 6
ENDMDL
MODEL 3
REMARK VINA RESULT:    -4.707     11.263     13.522
REMARK INTER + INTRA:          -6.192
REMARK INTER:                  -5.770
REMARK INTRA:                  -0.422
REMARK UNBOUND:                -0.384
REMARK  6 active torsions:
REMARK  status: ('A' for Active; 'I' for Inactive)
REMARK    1  A    between atoms: S_1  and  C_15 
REMARK    2  A    between atoms: O_3  and  C_10 
REMARK    3  A    between atoms: O_4  and  C_12 
REMARK    4  A    between atoms: O_5  and  C_13 
REMARK    5  A    between atoms: O_6  and  C_14 
REMARK    6  A    between atoms: C_11  and  C_15 
ROOT
HETATM    1  O   UNL     1      39.593  46.808  36.554  1.00  0.00    -0.328 OA
HETATM    2  C   UNL     1      41.324  47.667  38.081  1.00  0.00     0.168 C 
HETATM    3  C   UNL     1      40.099  48.009  37.197  1.00  0.00     0.166 C 
HETATM    4  C   UNL     1      41.008  46.498  39.031  1.00  0.00     0.172 C 
HETATM    5  C   UNL     1      40.416  45.300  38.288  1.00  0.00     0.197 C 
HETATM    6  C   UNL     1      39.227  45.772  37.443  1.00  0.00     0.263 C 
ENDROOT
BRANCH   3   7
HETATM    7  C   UNL     1      40.412  48.952  36.035  1.00  0.00     0.178 C 
BRANCH   7   8
HETATM    8  S   UNL     1      40.653  50.634  36.507  1.00  0.00     0.118 S 
HETATM    9  O   UNL     1      42.109  50.742  36.582  1.00  0.00    -0.594 OA
HETATM   10  O   UNL     1      40.042  51.376  35.409  1.00  0.00    -0.594 OA
HETATM   11  O   UNL     1      39.959  50.734  37.786  1.00  0.00    -0.594 OA
ENDBRANCH   7   8
ENDBRANCH   3   7
BRANCH   2  12
HETATM   12  O   UNL     1      41.772  48.716  38.945  1.00  0.00    -0.380 OA
HETATM   13  H   UNL     1      42.764  48.709  38.965  1.00  0.00     0.211 HD
ENDBRANCH   2  12
BRANCH   6  14
HETATM   14  O   UNL     1      38.162  46.197  38.285  1.00  0.00    -0.359 OA
HETATM   15  H   UNL     1      37.745  46.928  37.795  1.00  0.00     0.213 HD
ENDBRANCH   6  14
BRANCH   4  16
HETATM   16  O   UNL     1      42.223  46.125  39.710  1.00  0.00    -0.380 OA
HETATM   17  H   UNL     1      42.853  45.960  38.977  1.00  0.00     0.211 HD
ENDBRANCH   4  16
BRANCH   5  18
HETATM   18  O   UNL     1      39.978  44.283  39.208  1.00  0.00    -0.378 OA
HETATM   19  H   UNL     1      39.097  44.579  39.512  1.00  0.00     0.211 HD
ENDBRANCH   5  18
TORSDOF 6
ENDMDL
MODEL 4
REMARK VINA RESULT:    -4.592      2.459      3.374
REMARK INTER + INTRA:          -6.050
REMARK INTER:                  -5.666
REMARK INTRA:                  -0.384
REMARK UNBOUND:                -0.384
REMARK  6 active torsions:
REMARK  status: ('A' for Active; 'I' for Inactive)
REMARK    1  A    between atoms: S_1  and  C_15 
REMARK    2  A    between atoms: O_3  and  C_10 
REMARK    3  A    between atoms: O_4  and  C_12 
REMARK    4  A    between atoms: O_5  and  C_13 
REMARK    5  A    between atoms: O_6  and  C_14 
REMARK    6  A    between atoms: C_11  and  C_15 
ROOT
HETATM    1  O   UNL     1      42.030  39.563  47.146  1.00  0.00    -0.328 OA
HETATM    2  C   UNL     1      43.978  38.171  46.569  1.00  0.00     0.168 C 
HETATM    3  C   UNL     1      43.183  39.466  46.268  1.00  0.00     0.166 C 
HETATM    4  C   UNL     1      44.287  38.051  48.072  1.00  0.00     0.172 C 
HETATM    5  C   UNL     1      43.035  38.234  48.930  1.00  0.00     0.197 C 
HETATM    6  C   UNL     1      42.335  39.537  48.526  1.00  0.00     0.263 C 
ENDROOT
BRANCH   3   7
HETATM    7  C   UNL     1      42.587  39.519  44.861  1.00  0.00     0.178 C 
BRANCH   7   8
HETATM    8  S   UNL     1      43.579  40.379  43.682  1.00  0.00     0.118 S 
HETATM    9  O   UNL     1      43.725  39.397  42.607  1.00  0.00    -0.594 OA
HETATM   10  O   UNL     1      42.760  41.537  43.343  1.00  0.00    -0.594 OA
HETATM   11  O   UNL     1      44.803  40.676  44.416  1.00  0.00    -0.594 OA
ENDBRANCH   7   8
ENDBRANCH   3   7
BRANCH   2  12
HETATM   12  O   UNL     1      45.257  38.071  45.934  1.00  0.00    -0.380 OA
HETATM   13  H   UNL     1      45.350  37.161  45.548  1.00  0.00     0.211 HD
ENDBRANCH   2  12
BRANCH   6  14
HETATM   14  O   UNL     1      43.141  40.657  48.874  1.00  0.00    -0.359 OA
HETATM   15  H   UNL     1      43.970  40.265  49.201  1.00  0.00     0.213 HD
ENDBRANCH   6  14
BRANCH   4  16
HETATM   16  O   UNL     1      44.883  36.762  48.310  1.00  0.00    -0.380 OA
HETATM   17  H   UNL     1      45.707  36.789  47.778  1.00  0.00     0.211 HD
ENDBRANCH   4  16
BRANCH   5  18
HETATM   18  O   UNL     1      43.368  38.281  50.330  1.00  0.00    -0.378 OA
HETATM   19  H   UNL     1      44.333  38.135  50.367  1.00  0.00     0.211 HD
ENDBRANCH   5  18
TORSDOF 6
ENDMDL
MODEL 5
REMARK VINA RESULT:    -4.536     26.475     27.613
REMARK INTER + INTRA:          -5.980
REMARK INTER:                  -5.498
REMARK INTRA:                  -0.482
REMARK UNBOUND:                -0.384
REMARK  6 active torsions:
REMARK  status: ('A' for Active; 'I' for Inactive)
REMARK    1  A    between atoms: S_1  and  C_15 
REMARK    2  A    between atoms: O_3  and  C_10 
REMARK    3  A    between atoms: O_4  and  C_12 
REMARK    4  A    between atoms: O_5  and  C_13 
REMARK    5  A    between atoms: O_6  and  C_14 
REMARK    6  A    between atoms: C_11  and  C_15 
ROOT
HETATM    1  O   UNL     1      40.902  67.535  49.520  1.00  0.00    -0.328 OA
HETATM    2  C   UNL     1      41.059  66.439  51.720  1.00  0.00     0.168 C 
HETATM    3  C   UNL     1      40.381  66.446  50.328  1.00  0.00     0.166 C 
HETATM    4  C   UNL     1      42.592  66.479  51.586  1.00  0.00     0.172 C 
HETATM    5  C   UNL     1      43.057  67.608  50.667  1.00  0.00     0.197 C 
HETATM    6  C   UNL     1      42.304  67.513  49.334  1.00  0.00     0.263 C 
ENDROOT
BRANCH   3   7
HETATM    7  C   UNL     1      38.873  66.700  50.369  1.00  0.00     0.178 C 
BRANCH   7   8
HETATM    8  S   UNL     1      37.902  65.267  50.705  1.00  0.00     0.118 S 
HETATM    9  O   UNL     1      38.794  64.175  50.317  1.00  0.00    -0.594 OA
HETATM   10  O   UNL     1      37.649  65.368  52.138  1.00  0.00    -0.594 OA
HETATM   11  O   UNL     1      36.730  65.440  49.853  1.00  0.00    -0.594 OA
ENDBRANCH   7   8
ENDBRANCH   3   7
BRANCH   2  12
HETATM   12  O   UNL     1      40.803  65.283  52.524  1.00  0.00    -0.380 OA
HETATM   13  H   UNL     1      41.602  65.102  53.084  1.00  0.00     0.211 HD
ENDBRANCH   2  12
BRANCH   6  14
HETATM   14  O   UNL     1      42.690  66.337  48.634  1.00  0.00    -0.359 OA
HETATM   15  H   UNL     1      43.138  65.792  49.305  1.00  0.00     0.213 HD
ENDBRANCH   6  14
BRANCH   4  16
HETATM   16  O   UNL     1      43.157  66.629  52.902  1.00  0.00    -0.380 OA
HETATM   17  H   UNL     1      43.611  67.497  52.859  1.00  0.00     0.211 HD
ENDBRANCH   4  16
BRANCH   5  18
HETATM   18  O   UNL     1      44.474  67.530  50.424  1.00  0.00    -0.378 OA
HETATM   19  H   UNL     1      44.562  67.009  49.602  1.00  0.00     0.211 HD
ENDBRANCH   5  18
TORSDOF 6
ENDMDL
MODEL 6
REMARK VINA RESULT:    -4.491     11.439     13.498
REMARK INTER + INTRA:          -5.924
REMARK INTER:                  -5.556
REMARK INTRA:                  -0.368
REMARK UNBOUND:                -0.384
REMARK  6 active torsions:
REMARK  status: ('A' for Active; 'I' for Inactive)
REMARK    1  A    between atoms: S_1  and  C_15 
REMARK    2  A    between atoms: O_3  and  C_10 
REMARK    3  A    between atoms: O_4  and  C_12 
REMARK    4  A    between atoms: O_5  and  C_13 
REMARK    5  A    between atoms: O_6  and  C_14 
REMARK    6  A    between atoms: C_11  and  C_15 
ROOT
HETATM    1  O   UNL     1      41.817  47.473  36.322  1.00  0.00    -0.328 OA
HETATM    2  C   UNL     1      41.858  46.331  38.503  1.00  0.00     0.168 C 
HETATM    3  C   UNL     1      42.370  47.527  37.664  1.00  0.00     0.166 C 
HETATM    4  C   UNL     1      40.323  46.224  38.431  1.00  0.00     0.172 C 
HETATM    5  C   UNL     1      39.816  46.244  36.989  1.00  0.00     0.197 C 
HETATM    6  C   UNL     1      40.404  47.461  36.266  1.00  0.00     0.263 C 
ENDROOT
BRANCH   3   7
HETATM    7  C   UNL     1      43.883  47.533  37.445  1.00  0.00     0.178 C 
BRANCH   7   8
HETATM    8  S   UNL     1      44.758  48.701  38.436  1.00  0.00     0.118 S 
HETATM    9  O   UNL     1      45.938  47.946  38.856  1.00  0.00    -0.594 OA
HETATM   10  O   UNL     1      45.031  49.788  37.502  1.00  0.00    -0.594 OA
HETATM   11  O   UNL     1      43.816  49.019  39.503  1.00  0.00    -0.594 OA
ENDBRANCH   7   8
ENDBRANCH   3   7
BRANCH   2  12
HETATM   12  O   UNL     1      42.143  46.393  39.904  1.00  0.00    -0.380 OA
HETATM   13  H   UNL     1      41.754  45.593  40.344  1.00  0.00     0.211 HD
ENDBRANCH   2  12
BRANCH   6  14
HETATM   14  O   UNL     1      39.878  48.663  36.818  1.00  0.00    -0.359 OA
HETATM   15  H   UNL     1      39.260  48.989  36.139  1.00  0.00     0.213 HD
ENDBRANCH   6  14
BRANCH   4  16
HETATM   16  O   UNL     1      39.923  45.011  39.095  1.00  0.00    -0.380 OA
HETATM   17  H   UNL     1      40.044  45.219  40.045  1.00  0.00     0.211 HD
ENDBRANCH   4  16
BRANCH   5  18
HETATM   18  O   UNL     1      38.379  46.307  36.946  1.00  0.00    -0.378 OA
HETATM   19  H   UNL     1      38.122  45.744  36.190  1.00  0.00     0.211 HD
ENDBRANCH   5  18
TORSDOF 6
ENDMDL
MODEL 7
REMARK VINA RESULT:    -4.479      1.569      2.352
REMARK INTER + INTRA:          -5.910
REMARK INTER:                  -5.703
REMARK INTRA:                  -0.208
REMARK UNBOUND:                -0.384
REMARK  6 active torsions:
REMARK  status: ('A' for Active; 'I' for Inactive)
REMARK    1  A    between atoms: S_1  and  C_15 
REMARK    2  A    between atoms: O_3  and  C_10 
REMARK    3  A    between atoms: O_4  and  C_12 
REMARK    4  A    between atoms: O_5  and  C_13 
REMARK    5  A    between atoms: O_6  and  C_14 
REMARK    6  A    between atoms: C_11  and  C_15 
ROOT
HETATM    1  O   UNL     1      43.067  37.485  46.498  1.00  0.00    -0.328 OA
HETATM    2  C   UNL     1      43.050  38.183  48.859  1.00  0.00     0.168 C 
HETATM    3  C   UNL     1      42.355  38.285  47.480  1.00  0.00     0.166 C 
HETATM    4  C   UNL     1      43.280  36.713  49.254  1.00  0.00     0.172 C 
HETATM    5  C   UNL     1      43.971  35.923  48.143  1.00  0.00     0.197 C 
HETATM    6  C   UNL     1      43.198  36.118  46.833  1.00  0.00     0.263 C 
ENDROOT
BRANCH   3   7
HETATM    7  C   UNL     1      42.352  39.693  46.884  1.00  0.00     0.178 C 
BRANCH   7   8
HETATM    8  S   UNL     1      40.953  40.053  45.872  1.00  0.00     0.118 S 
HETATM    9  O   UNL     1      41.532  40.114  44.531  1.00  0.00    -0.594 OA
HETATM   10  O   UNL     1      40.074  38.912  46.106  1.00  0.00    -0.594 OA
HETATM   11  O   UNL     1      40.471  41.326  46.395  1.00  0.00    -0.594 OA
ENDBRANCH   7   8
ENDBRANCH   3   7
BRANCH   2  12
HETATM   12  O   UNL     1      42.321  38.736  49.959  1.00  0.00    -0.380 OA
HETATM   13  H   UNL     1      42.595  38.268  50.791  1.00  0.00     0.211 HD
ENDBRANCH   2  12
BRANCH   6  14
HETATM   14  O   UNL     1      41.916  35.507  46.924  1.00  0.00    -0.359 OA
HETATM   15  H   UNL     1      41.892  34.886  46.174  1.00  0.00     0.213 HD
ENDBRANCH   6  14
BRANCH   4  16
HETATM   16  O   UNL     1      44.065  36.686  50.462  1.00  0.00    -0.380 OA
HETATM   17  H   UNL     1      44.963  36.933  50.156  1.00  0.00     0.211 HD
ENDBRANCH   4  16
BRANCH   5  18
HETATM   18  O   UNL     1      44.031  34.521  48.462  1.00  0.00    -0.378 OA
HETATM   19  H   UNL     1      44.781  34.433  49.082  1.00  0.00     0.211 HD
ENDBRANCH   5  18
TORSDOF 6
ENDMDL
MODEL 8
REMARK VINA RESULT:    -4.334      6.154      8.143
REMARK INTER + INTRA:          -5.732
REMARK INTER:                  -5.262
REMARK INTRA:                  -0.469
REMARK UNBOUND:                -0.384
REMARK  6 active torsions:
REMARK  status: ('A' for Active; 'I' for Inactive)
REMARK    1  A    between atoms: S_1  and  C_15 
REMARK    2  A    between atoms: O_3  and  C_10 
REMARK    3  A    between atoms: O_4  and  C_12 
REMARK    4  A    between atoms: O_5  and  C_13 
REMARK    5  A    between atoms: O_6  and  C_14 
REMARK    6  A    between atoms: C_11  and  C_15 
ROOT
HETATM    1  O   UNL     1      44.258  41.070  40.636  1.00  0.00    -0.328 OA
HETATM    2  C   UNL     1      45.054  39.274  42.121  1.00  0.00     0.168 C 
HETATM    3  C   UNL     1      45.439  40.341  41.067  1.00  0.00     0.166 C 
HETATM    4  C   UNL     1      44.218  39.896  43.255  1.00  0.00     0.172 C 
HETATM    5  C   UNL     1      43.037  40.703  42.718  1.00  0.00     0.197 C 
HETATM    6  C   UNL     1      43.546  41.708  41.678  1.00  0.00     0.263 C 
ENDROOT
BRANCH   3   7
HETATM    7  C   UNL     1      46.013  39.762  39.773  1.00  0.00     0.178 C 
BRANCH   7   8
HETATM    8  S   UNL     1      47.690  39.229  39.895  1.00  0.00     0.118 S 
HETATM    9  O   UNL     1      48.224  39.542  38.570  1.00  0.00    -0.594 OA
HETATM   10  O   UNL     1      48.221  40.053  40.976  1.00  0.00    -0.594 OA
HETATM   11  O   UNL     1      47.576  37.806  40.195  1.00  0.00    -0.594 OA
ENDBRANCH   7   8
ENDBRANCH   3   7
BRANCH   2  12
HETATM   12  O   UNL     1      46.151  38.647  42.792  1.00  0.00    -0.380 OA
HETATM   13  H   UNL     1      46.967  38.752  42.236  1.00  0.00     0.211 HD
ENDBRANCH   2  12
BRANCH   6  14
HETATM   14  O   UNL     1      44.362  42.692  42.302  1.00  0.00    -0.359 OA
HETATM   15  H   UNL     1      44.607  42.295  43.157  1.00  0.00     0.213 HD
ENDBRANCH   6  14
BRANCH   4  16
HETATM   16  O   UNL     1      43.761  38.835  44.114  1.00  0.00    -0.380 OA
HETATM   17  H   UNL     1      44.277  38.968  44.937  1.00  0.00     0.211 HD
ENDBRANCH   4  16
BRANCH   5  18
HETATM   18  O   UNL     1      42.365  41.409  43.778  1.00  0.00    -0.378 OA
HETATM   19  H   UNL     1      42.760  42.302  43.779  1.00  0.00     0.211 HD
ENDBRANCH   5  18
TORSDOF 6
ENDMDL
MODEL 9
REMARK VINA RESULT:    -4.333      2.097      2.664
REMARK INTER + INTRA:          -5.730
REMARK INTER:                  -5.525
REMARK INTRA:                  -0.204
REMARK UNBOUND:                -0.384
REMARK  6 active torsions:
REMARK  status: ('A' for Active; 'I' for Inactive)
REMARK    1  A    between atoms: S_1  and  C_15 
REMARK    2  A    between atoms: O_3  and  C_10 
REMARK    3  A    between atoms: O_4  and  C_12 
REMARK    4  A    between atoms: O_5  and  C_13 
REMARK    5  A    between atoms: O_6  and  C_14 
REMARK    6  A    between atoms: C_11  and  C_15 
ROOT
HETATM    1  O   UNL     1      42.586  37.877  46.445  1.00  0.00    -0.328 OA
HETATM    2  C   UNL     1      43.476  39.310  48.239  1.00  0.00     0.168 C 
HETATM    3  C   UNL     1      42.999  39.232  46.768  1.00  0.00     0.166 C 
HETATM    4  C   UNL     1      42.430  38.699  49.190  1.00  0.00     0.172 C 
HETATM    5  C   UNL     1      41.997  37.303  48.744  1.00  0.00     0.197 C 
HETATM    6  C   UNL     1      41.565  37.358  47.274  1.00  0.00     0.263 C 
ENDROOT
BRANCH   3   7
HETATM    7  C   UNL     1      44.088  39.545  45.741  1.00  0.00     0.178 C 
BRANCH   7   8
HETATM    8  S   UNL     1      43.479  40.049  44.165  1.00  0.00     0.118 S 
HETATM    9  O   UNL     1      44.447  41.066  43.755  1.00  0.00    -0.594 OA
HETATM   10  O   UNL     1      43.522  38.817  43.384  1.00  0.00    -0.594 OA
HETATM   11  O   UNL     1      42.142  40.552  44.458  1.00  0.00    -0.594 OA
ENDBRANCH   7   8
ENDBRANCH   3   7
BRANCH   2  12
HETATM   12  O   UNL     1      43.690  40.630  48.748  1.00  0.00    -0.380 OA
HETATM   13  H   UNL     1      44.532  40.635  49.274  1.00  0.00     0.211 HD
ENDBRANCH   2  12
BRANCH   6  14
HETATM   14  O   UNL     1      40.378  38.131  47.138  1.00  0.00    -0.359 OA
HETATM   15  H   UNL     1      40.621  39.007  47.487  1.00  0.00     0.213 HD
ENDBRANCH   6  14
BRANCH   4  16
HETATM   16  O   UNL     1      42.994  38.658  50.515  1.00  0.00    -0.380 OA
HETATM   17  H   UNL     1      43.288  37.727  50.610  1.00  0.00     0.211 HD
ENDBRANCH   4  16
BRANCH   5  18
HETATM   18  O   UNL     1      40.906  36.816  49.547  1.00  0.00    -0.378 OA
HETATM   19  H   UNL     1      40.206  37.492  49.461  1.00  0.00     0.211 HD
ENDBRANCH   5  18
TORSDOF 6
ENDMDL
MODEL 10
REMARK VINA RESULT:    -4.039      4.713      7.299
REMARK INTER + INTRA:          -5.367
REMARK INTER:                  -4.934
REMARK INTRA:                  -0.433
REMARK UNBOUND:                -0.384
REMARK  6 active torsions:
REMARK  status: ('A' for Active; 'I' for Inactive)
REMARK    1  A    between atoms: S_1  and  C_15 
REMARK    2  A    between atoms: O_3  and  C_10 
REMARK    3  A    between atoms: O_4  and  C_12 
REMARK    4  A    between atoms: O_5  and  C_13 
REMARK    5  A    between atoms: O_6  and  C_14 
REMARK    6  A    between atoms: C_11  and  C_15 
ROOT
HETATM    1  O   UNL     1      45.410  38.781  42.256  1.00  0.00    -0.328 OA
HETATM    2  C   UNL     1      43.476  40.291  42.452  1.00  0.00     0.168 C 
HETATM    3  C   UNL     1      44.687  39.647  43.170  1.00  0.00     0.166 C 
HETATM    4  C   UNL     1      43.906  40.950  41.129  1.00  0.00     0.172 C 
HETATM    5  C   UNL     1      44.721  39.997  40.254  1.00  0.00     0.197 C 
HETATM    6  C   UNL     1      45.875  39.418  41.082  1.00  0.00     0.263 C 
ENDROOT
BRANCH   3   7
HETATM    7  C   UNL     1      44.307  38.729  44.333  1.00  0.00     0.178 C 
BRANCH   7   8
HETATM    8  S   UNL     1      44.236  39.532  45.902  1.00  0.00     0.118 S 
HETATM    9  O   UNL     1      44.519  38.442  46.834  1.00  0.00    -0.594 OA
HETATM   10  O   UNL     1      45.287  40.539  45.805  1.00  0.00    -0.594 OA
HETATM   11  O   UNL     1      42.876  40.056  45.957  1.00  0.00    -0.594 OA
ENDBRANCH   7   8
ENDBRANCH   3   7
BRANCH   2  12
HETATM   12  O   UNL     1      42.818  41.339  43.172  1.00  0.00    -0.380 OA
HETATM   13  H   UNL     1      42.057  41.670  42.627  1.00  0.00     0.211 HD
ENDBRANCH   2  12
BRANCH   6  14
HETATM   14  O   UNL     1      46.806  40.442  41.412  1.00  0.00    -0.359 OA
HETATM   15  H   UNL     1      47.632  39.963  41.605  1.00  0.00     0.213 HD
ENDBRANCH   6  14
BRANCH   4  16
HETATM   16  O   UNL     1      42.723  41.390  40.436  1.00  0.00    -0.380 OA
HETATM   17  H   UNL     1      42.765  42.367  40.507  1.00  0.00     0.211 HD
ENDBRANCH   4  16
BRANCH   5  18
HETATM   18  O   UNL     1      45.251  40.676  39.101  1.00  0.00    -0.378 OA
HETATM   19  H   UNL     1      45.629  39.970  38.542  1.00  0.00     0.211 HD
ENDBRANCH   5  18
TORSDOF 6
ENDMDL
