REMARK  6 active torsions:
REMARK  status: ('A' for Active; 'I' for Inactive)
REMARK    1  A    between atoms: O_2  and  C_7 
REMARK    2  A    between atoms: O_3  and  C_8 
REMARK    3  A    between atoms: O_4  and  C_10 
REMARK    4  A    between atoms: O_5  and  C_11 
REMARK    5  A    between atoms: O_6  and  C_12 
REMARK    6  A    between atoms: C_9  and  C_12 
ROOT
HETATM    1  O   UNL     1      -0.739   1.175   0.291  1.00  0.00    -0.327 OA
HETATM    2  C   UNL     1      -0.378  -1.243   0.141  1.00  0.00     0.170 C 
HETATM    3  C   UNL     1       1.056  -0.979  -0.331  1.00  0.00     0.172 C 
HETATM    4  C   UNL     1      -1.280  -0.054  -0.222  1.00  0.00     0.176 C 
HETATM    5  C   UNL     1       1.548   0.377   0.169  1.00  0.00     0.197 C 
HETATM    6  C   UNL     1       0.548   1.470  -0.246  1.00  0.00     0.263 C 
ENDROOT
BRANCH   4   7
HETATM    7  C   UNL     1      -2.684  -0.216   0.368  1.00  0.00     0.170 C 
BRANCH   7   8
HETATM    8  O   UNL     1      -3.493   0.891  -0.033  1.00  0.00    -0.380 OA
HETATM    9  H   UNL     1      -2.982   1.690   0.209  1.00  0.00     0.211 HD
ENDBRANCH   7   8
ENDBRANCH   4   7
BRANCH   2  10
HETATM   10  O   UNL     1      -0.831  -2.473  -0.433  1.00  0.00    -0.380 OA
HETATM   11  H   UNL     1      -0.985  -2.341  -1.387  1.00  0.00     0.211 HD
ENDBRANCH   2  10
BRANCH   6  12
HETATM   12  O   UNL     1       0.977   2.731   0.251  1.00  0.00    -0.359 OA
HETATM   13  H   UNL     1       1.942   2.655   0.371  1.00  0.00     0.213 HD
ENDBRANCH   6  12
BRANCH   3  14
HETATM   14  O   UNL     1       1.939  -2.004   0.148  1.00  0.00    -0.380 OA
HETATM   15  H   UNL     1       1.449  -2.847   0.061  1.00  0.00     0.211 HD
ENDBRANCH   3  14
BRANCH   5  16
HETATM   16  O   UNL     1       2.850   0.657  -0.360  1.00  0.00    -0.378 OA
HETATM   17  H   UNL     1       3.371  -0.156  -0.197  1.00  0.00     0.211 HD
ENDBRANCH   5  16
TORSDOF 6
