REMARK  11 active torsions:
REMARK  status: ('A' for Active; 'I' for Inactive)
REMARK    1  A    between atoms: S_1  and  C_17 
REMARK    2  A    between atoms: O_3  and  C_16 
REMARK    3  A    between atoms: O_3  and  C_18 
REMARK    4  A    between atoms: O_4  and  C_12 
REMARK    5  A    between atoms: O_5  and  C_14 
REMARK    6  A    between atoms: O_6  and  C_15 
REMARK    7  A    between atoms: O_10  and  C_19 
REMARK    8  A    between atoms: O_11  and  C_20 
REMARK    9  A    between atoms: C_13  and  C_17 
REMARK   10  A    between atoms: C_18  and  C_19 
REMARK   11  A    between atoms: C_19  and  C_20 
ROOT
HETATM    1  O   UNL     1      -0.710   0.005   1.480  1.00  0.00    -0.328 OA
HETATM    2  C   UNL     1      -2.251  -0.158  -0.413  1.00  0.00     0.168 C 
HETATM    3  C   UNL     1      -0.986   0.523   0.152  1.00  0.00     0.166 C 
HETATM    4  C   UNL     1      -2.085  -1.689  -0.376  1.00  0.00     0.172 C 
HETATM    5  C   UNL     1      -1.662  -2.187   1.007  1.00  0.00     0.197 C 
HETATM    6  C   UNL     1      -0.438  -1.393   1.494  1.00  0.00     0.266 C 
ENDROOT
BRANCH   6   7
HETATM    7  O   UNL     1       0.702  -1.713   0.685  1.00  0.00    -0.326 OA
BRANCH   7   8
HETATM    8  C   UNL     1       1.922  -1.311   1.315  1.00  0.00     0.177 C 
BRANCH   8   9
HETATM    9  C   UNL     1       3.035  -1.148   0.280  1.00  0.00     0.170 C 
BRANCH   9  10
HETATM   10  O   UNL     1       4.289  -0.936   0.947  1.00  0.00    -0.380 OA
HETATM   11  H   UNL     1       4.850  -0.522   0.258  1.00  0.00     0.211 HD
ENDBRANCH   9  10
BRANCH   9  12
HETATM   12  C   UNL     1       2.765   0.039  -0.650  1.00  0.00     0.169 C 
BRANCH  12  13
HETATM   13  O   UNL     1       3.920   0.259  -1.470  1.00  0.00    -0.380 OA
HETATM   14  H   UNL     1       3.673   1.034  -2.015  1.00  0.00     0.211 HD
ENDBRANCH  12  13
ENDBRANCH   9  12
ENDBRANCH   8   9
ENDBRANCH   7   8
ENDBRANCH   6   7
BRANCH   5  15
HETATM   15  O   UNL     1      -1.355  -3.593   0.983  1.00  0.00    -0.378 OA
HETATM   16  H   UNL     1      -0.606  -3.687   0.364  1.00  0.00     0.211 HD
ENDBRANCH   5  15
BRANCH   3  17
HETATM   17  C   UNL     1      -1.101   2.036   0.309  1.00  0.00     0.178 C 
BRANCH  17  18
HETATM   18  S   UNL     1      -0.603   2.909  -1.149  1.00  0.00     0.118 S 
HETATM   19  O   UNL     1      -1.565   2.438  -2.142  1.00  0.00    -0.594 OA
HETATM   20  O   UNL     1       0.771   2.464  -1.369  1.00  0.00    -0.594 OA
HETATM   21  O   UNL     1      -0.748   4.309  -0.766  1.00  0.00    -0.594 OA
ENDBRANCH  17  18
ENDBRANCH   3  17
BRANCH   4  22
HETATM   22  O   UNL     1      -3.332  -2.291  -0.774  1.00  0.00    -0.380 OA
HETATM   23  H   UNL     1      -3.600  -1.768  -1.559  1.00  0.00     0.211 HD
ENDBRANCH   4  22
BRANCH   2  24
HETATM   24  O   UNL     1      -2.584   0.142  -1.772  1.00  0.00    -0.380 OA
HETATM   25  H   UNL     1      -2.286   1.061  -1.997  1.00  0.00     0.211 HD
ENDBRANCH   2  24
TORSDOF 11
