REMARK  6 active torsions:
REMARK  status: ('A' for Active; 'I' for Inactive)
REMARK    1  A    between atoms: S_1  and  C_15 
REMARK    2  A    between atoms: O_3  and  C_10 
REMARK    3  A    between atoms: O_4  and  C_12 
REMARK    4  A    between atoms: O_5  and  C_13 
REMARK    5  A    between atoms: O_6  and  C_14 
REMARK    6  A    between atoms: C_11  and  C_15 
ROOT
HETATM    1  O   UNL     1       0.401  -1.340  -0.695  1.00  0.00    -0.328 OA
HETATM    2  C   UNL     1       0.754   0.905   0.315  1.00  0.00     0.168 C 
HETATM    3  C   UNL     1      -0.234  -0.265   0.048  1.00  0.00     0.166 C 
HETATM    4  C   UNL     1       2.131   0.393   0.797  1.00  0.00     0.172 C 
HETATM    5  C   UNL     1       2.634  -0.795  -0.021  1.00  0.00     0.197 C 
HETATM    6  C   UNL     1       1.560  -1.881  -0.077  1.00  0.00     0.263 C 
ENDROOT
BRANCH   3   7
HETATM    7  C   UNL     1      -1.425   0.125  -0.829  1.00  0.00     0.178 C 
BRANCH   7   8
HETATM    8  S   UNL     1      -2.699   1.013   0.006  1.00  0.00     0.118 S 
HETATM    9  O   UNL     1      -2.033   2.258   0.382  1.00  0.00    -0.594 OA
HETATM   10  O   UNL     1      -3.055   0.137   1.116  1.00  0.00    -0.594 OA
HETATM   11  O   UNL     1      -3.723   1.157  -1.025  1.00  0.00    -0.594 OA
ENDBRANCH   7   8
ENDBRANCH   3   7
BRANCH   2  12
HETATM   12  O   UNL     1       0.282   1.803   1.322  1.00  0.00    -0.380 OA
HETATM   13  H   UNL     1      -0.596   2.163   1.039  1.00  0.00     0.211 HD
ENDBRANCH   2  12
BRANCH   6  14
HETATM   14  O   UNL     1       1.259  -2.414   1.192  1.00  0.00    -0.359 OA
HETATM   15  H   UNL     1       0.540  -3.051   1.035  1.00  0.00     0.213 HD
ENDBRANCH   6  14
BRANCH   4  16
HETATM   16  O   UNL     1       3.122   1.440   0.711  1.00  0.00    -0.380 OA
HETATM   17  H   UNL     1       3.339   1.516  -0.237  1.00  0.00     0.211 HD
ENDBRANCH   4  16
BRANCH   5  18
HETATM   18  O   UNL     1       2.961  -0.342  -1.356  1.00  0.00    -0.378 OA
HETATM   19  H   UNL     1       2.123  -0.347  -1.860  1.00  0.00     0.211 HD
ENDBRANCH   5  18
TORSDOF 6
