MODEL 1
REMARK VINA RESULT:    -6.073      0.000      0.000
REMARK INTER + INTRA:          -7.898
REMARK INTER:                  -7.493
REMARK INTRA:                  -0.405
REMARK UNBOUND:                -0.405
REMARK  6 active torsions:
REMARK  status: ('A' for Active; 'I' for Inactive)
REMARK    1  A    between atoms: S_1  and  C_15 
REMARK    2  A    between atoms: O_3  and  C_10 
REMARK    3  A    between atoms: O_4  and  C_12 
REMARK    4  A    between atoms: O_5  and  C_13 
REMARK    5  A    between atoms: O_6  and  C_14 
REMARK    6  A    between atoms: C_11  and  C_15 
ROOT
HETATM    1  O   UNL     1      46.634  43.317  51.090  1.00  0.00    -0.328 OA
HETATM    2  C   UNL     1      45.471  43.007  48.914  1.00  0.00     0.168 C 
HETATM    3  C   UNL     1      45.477  43.707  50.302  1.00  0.00     0.166 C 
HETATM    4  C   UNL     1      46.864  43.050  48.245  1.00  0.00     0.172 C 
HETATM    5  C   UNL     1      47.992  42.704  49.215  1.00  0.00     0.197 C 
HETATM    6  C   UNL     1      47.885  43.572  50.468  1.00  0.00     0.263 C 
ENDROOT
BRANCH   3   7
HETATM    7  C   UNL     1      44.291  43.324  51.188  1.00  0.00     0.178 C 
BRANCH   7   8
HETATM    8  S   UNL     1      43.042  44.561  51.329  1.00  0.00     0.118 S 
HETATM    9  O   UNL     1      42.760  44.896  49.935  1.00  0.00    -0.594 OA
HETATM   10  O   UNL     1      43.689  45.613  52.104  1.00  0.00    -0.594 OA
HETATM   11  O   UNL     1      41.964  43.857  52.016  1.00  0.00    -0.594 OA
ENDBRANCH   7   8
ENDBRANCH   3   7
BRANCH   2  12
HETATM   12  O   UNL     1      44.562  43.619  47.995  1.00  0.00    -0.380 OA
HETATM   13  H   UNL     1      44.869  44.542  47.813  1.00  0.00     0.211 HD
ENDBRANCH   2  12
BRANCH   6  14
HETATM   14  O   UNL     1      48.049  44.944  50.195  1.00  0.00    -0.359 OA
HETATM   15  H   UNL     1      48.819  44.994  49.603  1.00  0.00     0.213 HD
ENDBRANCH   6  14
BRANCH   4  16
HETATM   16  O   UNL     1      46.928  42.120  47.142  1.00  0.00    -0.380 OA
HETATM   17  H   UNL     1      46.467  42.559  46.403  1.00  0.00     0.211 HD
ENDBRANCH   4  16
BRANCH   5  18
HETATM   18  O   UNL     1      47.897  41.303  49.564  1.00  0.00    -0.378 OA
HETATM   19  H   UNL     1      48.811  40.953  49.543  1.00  0.00     0.211 HD
ENDBRANCH   5  18
TORSDOF 6
ENDMDL
MODEL 2
REMARK VINA RESULT:    -6.054      0.117      1.119
REMARK INTER + INTRA:          -7.875
REMARK INTER:                  -7.462
REMARK INTRA:                  -0.413
REMARK UNBOUND:                -0.405
REMARK  6 active torsions:
REMARK  status: ('A' for Active; 'I' for Inactive)
REMARK    1  A    between atoms: S_1  and  C_15 
REMARK    2  A    between atoms: O_3  and  C_10 
REMARK    3  A    between atoms: O_4  and  C_12 
REMARK    4  A    between atoms: O_5  and  C_13 
REMARK    5  A    between atoms: O_6  and  C_14 
REMARK    6  A    between atoms: C_11  and  C_15 
ROOT
HETATM    1  O   UNL     1      46.557  43.386  51.086  1.00  0.00    -0.328 OA
HETATM    2  C   UNL     1      45.455  43.023  48.887  1.00  0.00     0.168 C 
HETATM    3  C   UNL     1      45.401  43.723  50.273  1.00  0.00     0.166 C 
HETATM    4  C   UNL     1      46.859  43.128  48.246  1.00  0.00     0.172 C 
HETATM    5  C   UNL     1      47.981  42.833  49.241  1.00  0.00     0.197 C 
HETATM    6  C   UNL     1      47.809  43.696  50.490  1.00  0.00     0.263 C 
ENDROOT
BRANCH   3   7
HETATM    7  C   UNL     1      44.215  43.288  51.135  1.00  0.00     0.178 C 
BRANCH   7   8
HETATM    8  S   UNL     1      42.943  44.496  51.308  1.00  0.00     0.118 S 
HETATM    9  O   UNL     1      43.582  45.524  52.128  1.00  0.00    -0.594 OA
HETATM   10  O   UNL     1      41.862  43.764  51.957  1.00  0.00    -0.594 OA
HETATM   11  O   UNL     1      42.683  44.893  49.927  1.00  0.00    -0.594 OA
ENDBRANCH   7   8
ENDBRANCH   3   7
BRANCH   2  12
HETATM   12  O   UNL     1      44.540  43.592  47.948  1.00  0.00    -0.380 OA
HETATM   13  H   UNL     1      43.619  43.480  48.295  1.00  0.00     0.211 HD
ENDBRANCH   2  12
BRANCH   6  14
HETATM   14  O   UNL     1      47.917  45.074  50.219  1.00  0.00    -0.359 OA
HETATM   15  H   UNL     1      48.618  45.146  49.547  1.00  0.00     0.213 HD
ENDBRANCH   6  14
BRANCH   4  16
HETATM   16  O   UNL     1      46.988  42.201  47.147  1.00  0.00    -0.380 OA
HETATM   17  H   UNL     1      46.118  42.197  46.706  1.00  0.00     0.211 HD
ENDBRANCH   4  16
BRANCH   5  18
HETATM   18  O   UNL     1      47.942  41.429  49.590  1.00  0.00    -0.378 OA
HETATM   19  H   UNL     1      47.044  41.257  49.935  1.00  0.00     0.211 HD
ENDBRANCH   5  18
TORSDOF 6
ENDMDL
MODEL 3
REMARK VINA RESULT:    -5.232      2.125      4.891
REMARK INTER + INTRA:          -6.861
REMARK INTER:                  -6.479
REMARK INTRA:                  -0.382
REMARK UNBOUND:                -0.405
REMARK  6 active torsions:
REMARK  status: ('A' for Active; 'I' for Inactive)
REMARK    1  A    between atoms: S_1  and  C_15 
REMARK    2  A    between atoms: O_3  and  C_10 
REMARK    3  A    between atoms: O_4  and  C_12 
REMARK    4  A    between atoms: O_5  and  C_13 
REMARK    5  A    between atoms: O_6  and  C_14 
REMARK    6  A    between atoms: C_11  and  C_15 
ROOT
HETATM    1  O   UNL     1      45.801  44.761  51.946  1.00  0.00    -0.328 OA
HETATM    2  C   UNL     1      43.925  43.613  50.784  1.00  0.00     0.168 C 
HETATM    3  C   UNL     1      45.463  43.737  50.971  1.00  0.00     0.166 C 
HETATM    4  C   UNL     1      43.181  43.611  52.139  1.00  0.00     0.172 C 
HETATM    5  C   UNL     1      43.701  44.683  53.095  1.00  0.00     0.197 C 
HETATM    6  C   UNL     1      45.219  44.571  53.228  1.00  0.00     0.263 C 
ENDROOT
BRANCH   3   7
HETATM    7  C   UNL     1      46.202  44.184  49.709  1.00  0.00     0.178 C 
BRANCH   7   8
HETATM    8  S   UNL     1      46.934  42.877  48.779  1.00  0.00     0.118 S 
HETATM    9  O   UNL     1      48.358  43.030  49.070  1.00  0.00    -0.594 OA
HETATM   10  O   UNL     1      46.543  43.173  47.406  1.00  0.00    -0.594 OA
HETATM   11  O   UNL     1      46.319  41.684  49.356  1.00  0.00    -0.594 OA
ENDBRANCH   7   8
ENDBRANCH   3   7
BRANCH   2  12
HETATM   12  O   UNL     1      43.549  42.408  50.115  1.00  0.00    -0.380 OA
HETATM   13  H   UNL     1      43.655  41.650  50.743  1.00  0.00     0.211 HD
ENDBRANCH   2  12
BRANCH   6  14
HETATM   14  O   UNL     1      45.627  43.348  53.796  1.00  0.00    -0.359 OA
HETATM   15  H   UNL     1      45.639  42.716  53.055  1.00  0.00     0.213 HD
ENDBRANCH   6  14
BRANCH   4  16
HETATM   16  O   UNL     1      41.769  43.839  51.945  1.00  0.00    -0.380 OA
HETATM   17  H   UNL     1      41.670  44.078  51.004  1.00  0.00     0.211 HD
ENDBRANCH   4  16
BRANCH   5  18
HETATM   18  O   UNL     1      43.335  45.986  52.584  1.00  0.00    -0.378 OA
HETATM   19  H   UNL     1      42.576  45.843  51.985  1.00  0.00     0.211 HD
ENDBRANCH   5  18
TORSDOF 6
ENDMDL
MODEL 4
REMARK VINA RESULT:    -5.160      1.869      3.116
REMARK INTER + INTRA:          -6.772
REMARK INTER:                  -6.351
REMARK INTRA:                  -0.421
REMARK UNBOUND:                -0.405
REMARK  6 active torsions:
REMARK  status: ('A' for Active; 'I' for Inactive)
REMARK    1  A    between atoms: S_1  and  C_15 
REMARK    2  A    between atoms: O_3  and  C_10 
REMARK    3  A    between atoms: O_4  and  C_12 
REMARK    4  A    between atoms: O_5  and  C_13 
REMARK    5  A    between atoms: O_6  and  C_14 
REMARK    6  A    between atoms: C_11  and  C_15 
ROOT
HETATM    1  O   UNL     1      43.983  44.617  49.869  1.00  0.00    -0.328 OA
HETATM    2  C   UNL     1      45.251  42.750  50.914  1.00  0.00     0.168 C 
HETATM    3  C   UNL     1      43.999  43.669  50.970  1.00  0.00     0.166 C 
HETATM    4  C   UNL     1      45.507  42.218  49.484  1.00  0.00     0.172 C 
HETATM    5  C   UNL     1      45.371  43.306  48.421  1.00  0.00     0.197 C 
HETATM    6  C   UNL     1      44.030  44.024  48.579  1.00  0.00     0.263 C 
ENDROOT
BRANCH   3   7
HETATM    7  C   UNL     1      43.947  44.560  52.213  1.00  0.00     0.178 C 
BRANCH   7   8
HETATM    8  S   UNL     1      42.768  44.066  53.428  1.00  0.00     0.118 S 
HETATM    9  O   UNL     1      41.534  43.954  52.655  1.00  0.00    -0.594 OA
HETATM   10  O   UNL     1      42.800  45.155  54.397  1.00  0.00    -0.594 OA
HETATM   11  O   UNL     1      43.307  42.795  53.904  1.00  0.00    -0.594 OA
ENDBRANCH   7   8
ENDBRANCH   3   7
BRANCH   2  12
HETATM   12  O   UNL     1      45.126  41.601  51.755  1.00  0.00    -0.380 OA
HETATM   13  H   UNL     1      46.031  41.323  52.047  1.00  0.00     0.211 HD
ENDBRANCH   2  12
BRANCH   6  14
HETATM   14  O   UNL     1      42.929  43.171  48.370  1.00  0.00    -0.359 OA
HETATM   15  H   UNL     1      42.145  43.735  48.491  1.00  0.00     0.213 HD
ENDBRANCH   6  14
BRANCH   4  16
HETATM   16  O   UNL     1      46.835  41.661  49.379  1.00  0.00    -0.380 OA
HETATM   17  H   UNL     1      47.376  42.356  48.960  1.00  0.00     0.211 HD
ENDBRANCH   4  16
BRANCH   5  18
HETATM   18  O   UNL     1      46.463  44.245  48.566  1.00  0.00    -0.378 OA
HETATM   19  H   UNL     1      46.490  44.490  49.512  1.00  0.00     0.211 HD
ENDBRANCH   5  18
TORSDOF 6
ENDMDL
MODEL 5
REMARK VINA RESULT:    -5.122      1.407      2.040
REMARK INTER + INTRA:          -6.725
REMARK INTER:                  -6.238
REMARK INTRA:                  -0.487
REMARK UNBOUND:                -0.405
REMARK  6 active torsions:
REMARK  status: ('A' for Active; 'I' for Inactive)
REMARK    1  A    between atoms: S_1  and  C_15 
REMARK    2  A    between atoms: O_3  and  C_10 
REMARK    3  A    between atoms: O_4  and  C_12 
REMARK    4  A    between atoms: O_5  and  C_13 
REMARK    5  A    between atoms: O_6  and  C_14 
REMARK    6  A    between atoms: C_11  and  C_15 
ROOT
HETATM    1  O   UNL     1      46.736  43.540  51.608  1.00  0.00    -0.328 OA
HETATM    2  C   UNL     1      44.606  43.926  50.383  1.00  0.00     0.168 C 
HETATM    3  C   UNL     1      45.471  44.255  51.632  1.00  0.00     0.166 C 
HETATM    4  C   UNL     1      45.443  43.957  49.083  1.00  0.00     0.172 C 
HETATM    5  C   UNL     1      46.784  43.242  49.232  1.00  0.00     0.197 C 
HETATM    6  C   UNL     1      47.528  43.780  50.454  1.00  0.00     0.263 C 
ENDROOT
BRANCH   3   7
HETATM    7  C   UNL     1      44.835  43.818  52.952  1.00  0.00     0.178 C 
BRANCH   7   8
HETATM    8  S   UNL     1      43.619  44.925  53.590  1.00  0.00     0.118 S 
HETATM    9  O   UNL     1      42.372  44.371  53.068  1.00  0.00    -0.594 OA
HETATM   10  O   UNL     1      44.008  46.216  53.034  1.00  0.00    -0.594 OA
HETATM   11  O   UNL     1      43.787  44.794  55.034  1.00  0.00    -0.594 OA
ENDBRANCH   7   8
ENDBRANCH   3   7
BRANCH   2  12
HETATM   12  O   UNL     1      43.536  44.855  50.197  1.00  0.00    -0.380 OA
HETATM   13  H   UNL     1      42.745  44.364  49.860  1.00  0.00     0.211 HD
ENDBRANCH   2  12
BRANCH   6  14
HETATM   14  O   UNL     1      47.855  45.145  50.334  1.00  0.00    -0.359 OA
HETATM   15  H   UNL     1      47.221  45.608  50.910  1.00  0.00     0.213 HD
ENDBRANCH   6  14
BRANCH   4  16
HETATM   16  O   UNL     1      44.724  43.327  48.000  1.00  0.00    -0.380 OA
HETATM   17  H   UNL     1      44.733  43.974  47.270  1.00  0.00     0.211 HD
ENDBRANCH   4  16
BRANCH   5  18
HETATM   18  O   UNL     1      46.547  41.821  49.373  1.00  0.00    -0.378 OA
HETATM   19  H   UNL     1      46.040  41.548  48.582  1.00  0.00     0.211 HD
ENDBRANCH   5  18
TORSDOF 6
ENDMDL
MODEL 6
REMARK VINA RESULT:    -4.824      2.316      4.500
REMARK INTER + INTRA:          -6.357
REMARK INTER:                  -5.953
REMARK INTRA:                  -0.404
REMARK UNBOUND:                -0.405
REMARK  6 active torsions:
REMARK  status: ('A' for Active; 'I' for Inactive)
REMARK    1  A    between atoms: S_1  and  C_15 
REMARK    2  A    between atoms: O_3  and  C_10 
REMARK    3  A    between atoms: O_4  and  C_12 
REMARK    4  A    between atoms: O_5  and  C_13 
REMARK    5  A    between atoms: O_6  and  C_14 
REMARK    6  A    between atoms: C_11  and  C_15 
ROOT
HETATM    1  O   UNL     1      44.614  42.637  51.531  1.00  0.00    -0.328 OA
HETATM    2  C   UNL     1      47.061  43.033  51.740  1.00  0.00     0.168 C 
HETATM    3  C   UNL     1      45.772  43.247  50.898  1.00  0.00     0.166 C 
HETATM    4  C   UNL     1      46.816  43.308  53.242  1.00  0.00     0.172 C 
HETATM    5  C   UNL     1      45.518  42.681  53.748  1.00  0.00     0.197 C 
HETATM    6  C   UNL     1      44.353  43.095  52.850  1.00  0.00     0.263 C 
ENDROOT
BRANCH   3   7
HETATM    7  C   UNL     1      45.821  42.582  49.521  1.00  0.00     0.178 C 
BRANCH   7   8
HETATM    8  S   UNL     1      46.035  43.695  48.170  1.00  0.00     0.118 S 
HETATM    9  O   UNL     1      46.516  42.821  47.103  1.00  0.00    -0.594 OA
HETATM   10  O   UNL     1      47.007  44.659  48.672  1.00  0.00    -0.594 OA
HETATM   11  O   UNL     1      44.688  44.221  47.966  1.00  0.00    -0.594 OA
ENDBRANCH   7   8
ENDBRANCH   3   7
BRANCH   2  12
HETATM   12  O   UNL     1      48.127  43.898  51.340  1.00  0.00    -0.380 OA
HETATM   13  H   UNL     1      48.417  44.427  52.125  1.00  0.00     0.211 HD
ENDBRANCH   2  12
BRANCH   6  14
HETATM   14  O   UNL     1      44.118  44.484  52.870  1.00  0.00    -0.359 OA
HETATM   15  H   UNL     1      43.161  44.576  53.019  1.00  0.00     0.213 HD
ENDBRANCH   6  14
BRANCH   4  16
HETATM   16  O   UNL     1      47.900  42.785  54.039  1.00  0.00    -0.380 OA
HETATM   17  H   UNL     1      48.492  43.543  54.202  1.00  0.00     0.211 HD
ENDBRANCH   4  16
BRANCH   5  18
HETATM   18  O   UNL     1      45.663  41.241  53.752  1.00  0.00    -0.378 OA
HETATM   19  H   UNL     1      46.454  41.043  53.213  1.00  0.00     0.211 HD
ENDBRANCH   5  18
TORSDOF 6
ENDMDL
MODEL 7
REMARK VINA RESULT:    -4.772      2.341      5.049
REMARK INTER + INTRA:          -6.293
REMARK INTER:                  -5.889
REMARK INTRA:                  -0.403
REMARK UNBOUND:                -0.405
REMARK  6 active torsions:
REMARK  status: ('A' for Active; 'I' for Inactive)
REMARK    1  A    between atoms: S_1  and  C_15 
REMARK    2  A    between atoms: O_3  and  C_10 
REMARK    3  A    between atoms: O_4  and  C_12 
REMARK    4  A    between atoms: O_5  and  C_13 
REMARK    5  A    between atoms: O_6  and  C_14 
REMARK    6  A    between atoms: C_11  and  C_15 
ROOT
HETATM    1  O   UNL     1      44.535  42.544  51.304  1.00  0.00    -0.328 OA
HETATM    2  C   UNL     1      46.364  44.207  51.574  1.00  0.00     0.168 C 
HETATM    3  C   UNL     1      45.602  43.249  50.615  1.00  0.00     0.166 C 
HETATM    4  C   UNL     1      45.392  45.026  52.456  1.00  0.00     0.172 C 
HETATM    5  C   UNL     1      44.271  44.170  53.042  1.00  0.00     0.197 C 
HETATM    6  C   UNL     1      43.577  43.386  51.928  1.00  0.00     0.263 C 
ENDROOT
BRANCH   3   7
HETATM    7  C   UNL     1      46.473  42.125  50.052  1.00  0.00     0.178 C 
BRANCH   7   8
HETATM    8  S   UNL     1      47.382  42.549  48.602  1.00  0.00     0.118 S 
HETATM    9  O   UNL     1      48.586  43.173  49.145  1.00  0.00    -0.594 OA
HETATM   10  O   UNL     1      46.483  43.446  47.886  1.00  0.00    -0.594 OA
HETATM   11  O   UNL     1      47.602  41.252  47.967  1.00  0.00    -0.594 OA
ENDBRANCH   7   8
ENDBRANCH   3   7
BRANCH   2  12
HETATM   12  O   UNL     1      47.171  45.157  50.874  1.00  0.00    -0.380 OA
HETATM   13  H   UNL     1      47.545  44.721  50.068  1.00  0.00     0.211 HD
ENDBRANCH   2  12
BRANCH   6  14
HETATM   14  O   UNL     1      42.944  44.222  50.988  1.00  0.00    -0.359 OA
HETATM   15  H   UNL     1      42.601  44.972  51.506  1.00  0.00     0.213 HD
ENDBRANCH   6  14
BRANCH   4  16
HETATM   16  O   UNL     1      46.098  45.642  53.554  1.00  0.00    -0.380 OA
HETATM   17  H   UNL     1      46.291  46.552  53.262  1.00  0.00     0.211 HD
ENDBRANCH   4  16
BRANCH   5  18
HETATM   18  O   UNL     1      44.833  43.264  54.020  1.00  0.00    -0.378 OA
HETATM   19  H   UNL     1      44.258  42.473  54.023  1.00  0.00     0.211 HD
ENDBRANCH   5  18
TORSDOF 6
ENDMDL
MODEL 8
REMARK VINA RESULT:    -4.765      2.412      5.053
REMARK INTER + INTRA:          -6.284
REMARK INTER:                  -5.873
REMARK INTRA:                  -0.412
REMARK UNBOUND:                -0.405
REMARK  6 active torsions:
REMARK  status: ('A' for Active; 'I' for Inactive)
REMARK    1  A    between atoms: S_1  and  C_15 
REMARK    2  A    between atoms: O_3  and  C_10 
REMARK    3  A    between atoms: O_4  and  C_12 
REMARK    4  A    between atoms: O_5  and  C_13 
REMARK    5  A    between atoms: O_6  and  C_14 
REMARK    6  A    between atoms: C_11  and  C_15 
ROOT
HETATM    1  O   UNL     1      45.192  45.250  51.944  1.00  0.00    -0.328 OA
HETATM    2  C   UNL     1      44.366  42.925  52.255  1.00  0.00     0.168 C 
HETATM    3  C   UNL     1      45.365  43.869  51.528  1.00  0.00     0.166 C 
HETATM    4  C   UNL     1      44.286  43.231  53.768  1.00  0.00     0.172 C 
HETATM    5  C   UNL     1      44.196  44.728  54.059  1.00  0.00     0.197 C 
HETATM    6  C   UNL     1      45.325  45.467  53.342  1.00  0.00     0.263 C 
ENDROOT
BRANCH   3   7
HETATM    7  C   UNL     1      45.168  43.922  50.012  1.00  0.00     0.178 C 
BRANCH   7   8
HETATM    8  S   UNL     1      46.437  43.135  49.074  1.00  0.00     0.118 S 
HETATM    9  O   UNL     1      46.508  41.806  49.675  1.00  0.00    -0.594 OA
HETATM   10  O   UNL     1      47.602  43.983  49.297  1.00  0.00    -0.594 OA
HETATM   11  O   UNL     1      45.900  43.162  47.716  1.00  0.00    -0.594 OA
ENDBRANCH   7   8
ENDBRANCH   3   7
BRANCH   2  12
HETATM   12  O   UNL     1      44.731  41.548  52.140  1.00  0.00    -0.380 OA
HETATM   13  H   UNL     1      45.164  41.407  51.260  1.00  0.00     0.211 HD
ENDBRANCH   2  12
BRANCH   6  14
HETATM   14  O   UNL     1      46.602  45.084  53.798  1.00  0.00    -0.359 OA
HETATM   15  H   UNL     1      46.497  44.165  54.100  1.00  0.00     0.213 HD
ENDBRANCH   6  14
BRANCH   4  16
HETATM   16  O   UNL     1      43.130  42.596  54.355  1.00  0.00    -0.380 OA
HETATM   17  H   UNL     1      42.358  43.032  53.948  1.00  0.00     0.211 HD
ENDBRANCH   4  16
BRANCH   5  18
HETATM   18  O   UNL     1      42.910  45.217  53.611  1.00  0.00    -0.378 OA
HETATM   19  H   UNL     1      42.516  44.501  53.075  1.00  0.00     0.211 HD
ENDBRANCH   5  18
TORSDOF 6
ENDMDL
MODEL 9
REMARK VINA RESULT:    -4.746      1.984      3.481
REMARK INTER + INTRA:          -6.261
REMARK INTER:                  -5.820
REMARK INTRA:                  -0.441
REMARK UNBOUND:                -0.405
REMARK  6 active torsions:
REMARK  status: ('A' for Active; 'I' for Inactive)
REMARK    1  A    between atoms: S_1  and  C_15 
REMARK    2  A    between atoms: O_3  and  C_10 
REMARK    3  A    between atoms: O_4  and  C_12 
REMARK    4  A    between atoms: O_5  and  C_13 
REMARK    5  A    between atoms: O_6  and  C_14 
REMARK    6  A    between atoms: C_11  and  C_15 
ROOT
HETATM    1  O   UNL     1      45.007  44.237  50.434  1.00  0.00    -0.328 OA
HETATM    2  C   UNL     1      46.213  43.553  52.499  1.00  0.00     0.168 C 
HETATM    3  C   UNL     1      44.849  43.675  51.764  1.00  0.00     0.166 C 
HETATM    4  C   UNL     1      47.308  42.965  51.579  1.00  0.00     0.172 C 
HETATM    5  C   UNL     1      47.300  43.590  50.184  1.00  0.00     0.197 C 
HETATM    6  C   UNL     1      45.894  43.517  49.590  1.00  0.00     0.263 C 
ENDROOT
BRANCH   3   7
HETATM    7  C   UNL     1      43.868  44.630  52.446  1.00  0.00     0.178 C 
BRANCH   7   8
HETATM    8  S   UNL     1      43.024  43.955  53.839  1.00  0.00     0.118 S 
HETATM    9  O   UNL     1      43.177  42.515  53.644  1.00  0.00    -0.594 OA
HETATM   10  O   UNL     1      41.665  44.462  53.695  1.00  0.00    -0.594 OA
HETATM   11  O   UNL     1      43.775  44.499  54.967  1.00  0.00    -0.594 OA
ENDBRANCH   7   8
ENDBRANCH   3   7
BRANCH   2  12
HETATM   12  O   UNL     1      46.147  42.699  53.643  1.00  0.00    -0.380 OA
HETATM   13  H   UNL     1      45.660  43.172  54.364  1.00  0.00     0.211 HD
ENDBRANCH   2  12
BRANCH   6  14
HETATM   14  O   UNL     1      45.452  42.193  49.399  1.00  0.00    -0.359 OA
HETATM   15  H   UNL     1      45.865  41.682  50.116  1.00  0.00     0.213 HD
ENDBRANCH   6  14
BRANCH   4  16
HETATM   16  O   UNL     1      48.619  43.175  52.149  1.00  0.00    -0.380 OA
HETATM   17  H   UNL     1      48.635  44.110  52.426  1.00  0.00     0.211 HD
ENDBRANCH   4  16
BRANCH   5  18
HETATM   18  O   UNL     1      47.733  44.967  50.283  1.00  0.00    -0.378 OA
HETATM   19  H   UNL     1      47.387  45.421  49.490  1.00  0.00     0.211 HD
ENDBRANCH   5  18
TORSDOF 6
ENDMDL
MODEL 10
REMARK VINA RESULT:    -4.726      2.931      4.115
REMARK INTER + INTRA:          -6.237
REMARK INTER:                  -5.828
REMARK INTRA:                  -0.409
REMARK UNBOUND:                -0.405
REMARK  6 active torsions:
REMARK  status: ('A' for Active; 'I' for Inactive)
REMARK    1  A    between atoms: S_1  and  C_15 
REMARK    2  A    between atoms: O_3  and  C_10 
REMARK    3  A    between atoms: O_4  and  C_12 
REMARK    4  A    between atoms: O_5  and  C_13 
REMARK    5  A    between atoms: O_6  and  C_14 
REMARK    6  A    between atoms: C_11  and  C_15 
ROOT
HETATM    1  O   UNL     1      45.761  43.895  51.807  1.00  0.00    -0.328 OA
HETATM    2  C   UNL     1      47.737  42.405  51.569  1.00  0.00     0.168 C 
HETATM    3  C   UNL     1      46.342  42.628  52.217  1.00  0.00     0.166 C 
HETATM    4  C   UNL     1      47.734  42.758  50.064  1.00  0.00     0.172 C 
HETATM    5  C   UNL     1      47.012  44.072  49.772  1.00  0.00     0.197 C 
HETATM    6  C   UNL     1      45.620  44.053  50.402  1.00  0.00     0.263 C 
ENDROOT
BRANCH   3   7
HETATM    7  C   UNL     1      46.382  42.727  53.743  1.00  0.00     0.178 C 
BRANCH   7   8
HETATM    8  S   UNL     1      45.743  41.320  54.592  1.00  0.00     0.118 S 
HETATM    9  O   UNL     1      44.471  41.083  53.914  1.00  0.00    -0.594 OA
HETATM   10  O   UNL     1      45.639  41.773  55.974  1.00  0.00    -0.594 OA
HETATM   11  O   UNL     1      46.763  40.303  54.347  1.00  0.00    -0.594 OA
ENDBRANCH   7   8
ENDBRANCH   3   7
BRANCH   2  12
HETATM   12  O   UNL     1      48.176  41.048  51.665  1.00  0.00    -0.380 OA
HETATM   13  H   UNL     1      48.170  40.648  50.759  1.00  0.00     0.211 HD
ENDBRANCH   2  12
BRANCH   6  14
HETATM   14  O   UNL     1      44.790  43.053  49.857  1.00  0.00    -0.359 OA
HETATM   15  H   UNL     1      43.949  43.502  49.659  1.00  0.00     0.213 HD
ENDBRANCH   6  14
BRANCH   4  16
HETATM   16  O   UNL     1      49.084  42.874  49.565  1.00  0.00    -0.380 OA
HETATM   17  H   UNL     1      49.614  43.189  50.321  1.00  0.00     0.211 HD
ENDBRANCH   4  16
BRANCH   5  18
HETATM   18  O   UNL     1      47.792  45.166  50.308  1.00  0.00    -0.378 OA
HETATM   19  H   UNL     1      48.673  44.798  50.517  1.00  0.00     0.211 HD
ENDBRANCH   5  18
TORSDOF 6
ENDMDL
