MODEL 1
REMARK VINA RESULT:    -5.997      0.000      0.000
REMARK INTER + INTRA:          -7.387
REMARK INTER:                  -7.147
REMARK INTRA:                  -0.240
REMARK UNBOUND:                -0.162
REMARK  6 active torsions:
REMARK  status: ('A' for Active; 'I' for Inactive)
REMARK    1  A    between atoms: O_2  and  C_7 
REMARK    2  A    between atoms: O_3  and  C_8 
REMARK    3  A    between atoms: O_4  and  C_10 
REMARK    4  A    between atoms: O_5  and  C_11 
REMARK    5  A    between atoms: O_6  and  C_12 
REMARK    6  A    between atoms: C_9  and  C_12 
ROOT
HETATM    1  O   UNL     1      44.872  42.738  45.318  1.00  0.00    -0.327 OA
HETATM    2  C   UNL     1      44.037  44.379  43.702  1.00  0.00     0.170 C 
HETATM    3  C   UNL     1      43.969  45.420  44.825  1.00  0.00     0.172 C 
HETATM    4  C   UNL     1      43.898  42.965  44.285  1.00  0.00     0.176 C 
HETATM    5  C   UNL     1      44.961  45.082  45.935  1.00  0.00     0.197 C 
HETATM    6  C   UNL     1      44.725  43.639  46.413  1.00  0.00     0.263 C 
ENDROOT
BRANCH   4   7
HETATM    7  C   UNL     1      44.114  41.894  43.212  1.00  0.00     0.170 C 
BRANCH   7   8
HETATM    8  O   UNL     1      44.636  42.508  42.033  1.00  0.00    -0.380 OA
HETATM    9  H   UNL     1      44.936  43.397  42.311  1.00  0.00     0.211 HD
ENDBRANCH   7   8
ENDBRANCH   4   7
BRANCH   2  10
HETATM   10  O   UNL     1      43.024  44.678  42.737  1.00  0.00    -0.380 OA
HETATM   11  H   UNL     1      43.447  45.014  41.925  1.00  0.00     0.211 HD
ENDBRANCH   2  10
BRANCH   6  12
HETATM   12  O   UNL     1      45.671  43.301  47.418  1.00  0.00    -0.359 OA
HETATM   13  H   UNL     1      45.155  43.164  48.234  1.00  0.00     0.213 HD
ENDBRANCH   6  12
BRANCH   3  14
HETATM   14  O   UNL     1      44.263  46.729  44.315  1.00  0.00    -0.380 OA
HETATM   15  H   UNL     1      43.435  47.053  43.905  1.00  0.00     0.211 HD
ENDBRANCH   3  14
BRANCH   5  16
HETATM   16  O   UNL     1      44.819  46.003  47.023  1.00  0.00    -0.378 OA
HETATM   17  H   UNL     1      44.103  45.633  47.578  1.00  0.00     0.211 HD
ENDBRANCH   5  16
TORSDOF 6
ENDMDL
MODEL 2
REMARK VINA RESULT:    -5.246      1.294      3.314
REMARK INTER + INTRA:          -6.482
REMARK INTER:                  -6.235
REMARK INTRA:                  -0.247
REMARK UNBOUND:                -0.162
REMARK  6 active torsions:
REMARK  status: ('A' for Active; 'I' for Inactive)
REMARK    1  A    between atoms: O_2  and  C_7 
REMARK    2  A    between atoms: O_3  and  C_8 
REMARK    3  A    between atoms: O_4  and  C_10 
REMARK    4  A    between atoms: O_5  and  C_11 
REMARK    5  A    between atoms: O_6  and  C_12 
REMARK    6  A    between atoms: C_9  and  C_12 
ROOT
HETATM    1  O   UNL     1      43.643  42.843  43.989  1.00  0.00    -0.327 OA
HETATM    2  C   UNL     1      44.209  43.147  46.353  1.00  0.00     0.170 C 
HETATM    3  C   UNL     1      44.518  44.621  46.068  1.00  0.00     0.172 C 
HETATM    4  C   UNL     1      44.412  42.310  45.080  1.00  0.00     0.176 C 
HETATM    5  C   UNL     1      43.741  45.109  44.847  1.00  0.00     0.197 C 
HETATM    6  C   UNL     1      44.020  44.176  43.656  1.00  0.00     0.263 C 
ENDROOT
BRANCH   4   7
HETATM    7  C   UNL     1      43.968  40.860  45.288  1.00  0.00     0.170 C 
BRANCH   7   8
HETATM    8  O   UNL     1      44.989  40.151  45.991  1.00  0.00    -0.380 OA
HETATM    9  H   UNL     1      45.833  40.551  45.700  1.00  0.00     0.211 HD
ENDBRANCH   7   8
ENDBRANCH   4   7
BRANCH   2  10
HETATM   10  O   UNL     1      45.032  42.707  47.438  1.00  0.00    -0.380 OA
HETATM   11  H   UNL     1      45.671  42.048  47.106  1.00  0.00     0.211 HD
ENDBRANCH   2  10
BRANCH   6  12
HETATM   12  O   UNL     1      43.268  44.599  42.526  1.00  0.00    -0.359 OA
HETATM   13  H   UNL     1      43.914  44.709  41.803  1.00  0.00     0.213 HD
ENDBRANCH   6  12
BRANCH   3  14
HETATM   14  O   UNL     1      44.172  45.434  47.199  1.00  0.00    -0.380 OA
HETATM   15  H   UNL     1      43.312  45.097  47.523  1.00  0.00     0.211 HD
ENDBRANCH   3  14
BRANCH   5  16
HETATM   16  O   UNL     1      44.112  46.456  44.531  1.00  0.00    -0.378 OA
HETATM   17  H   UNL     1      43.945  46.965  45.351  1.00  0.00     0.211 HD
ENDBRANCH   5  16
TORSDOF 6
ENDMDL
MODEL 3
REMARK VINA RESULT:    -4.925      1.618      2.537
REMARK INTER + INTRA:          -6.095
REMARK INTER:                  -5.932
REMARK INTRA:                  -0.162
REMARK UNBOUND:                -0.162
REMARK  6 active torsions:
REMARK  status: ('A' for Active; 'I' for Inactive)
REMARK    1  A    between atoms: O_2  and  C_7 
REMARK    2  A    between atoms: O_3  and  C_8 
REMARK    3  A    between atoms: O_4  and  C_10 
REMARK    4  A    between atoms: O_5  and  C_11 
REMARK    5  A    between atoms: O_6  and  C_12 
REMARK    6  A    between atoms: C_9  and  C_12 
ROOT
HETATM    1  O   UNL     1      44.832  41.976  44.263  1.00  0.00    -0.327 OA
HETATM    2  C   UNL     1      44.089  44.183  45.023  1.00  0.00     0.170 C 
HETATM    3  C   UNL     1      44.044  43.651  46.459  1.00  0.00     0.172 C 
HETATM    4  C   UNL     1      43.885  43.032  44.027  1.00  0.00     0.176 C 
HETATM    5  C   UNL     1      45.004  42.476  46.630  1.00  0.00     0.197 C 
HETATM    6  C   UNL     1      44.702  41.409  45.564  1.00  0.00     0.263 C 
ENDROOT
BRANCH   4   7
HETATM    7  C   UNL     1      44.075  43.501  42.581  1.00  0.00     0.170 C 
BRANCH   7   8
HETATM    8  O   UNL     1      45.197  44.383  42.518  1.00  0.00    -0.380 OA
HETATM    9  H   UNL     1      44.876  45.181  42.051  1.00  0.00     0.211 HD
ENDBRANCH   7   8
ENDBRANCH   4   7
BRANCH   2  10
HETATM   10  O   UNL     1      43.104  45.212  44.884  1.00  0.00    -0.380 OA
HETATM   11  H   UNL     1      42.988  45.416  43.937  1.00  0.00     0.211 HD
ENDBRANCH   2  10
BRANCH   6  12
HETATM   12  O   UNL     1      45.618  40.329  45.689  1.00  0.00    -0.359 OA
HETATM   13  H   UNL     1      45.566  40.042  46.620  1.00  0.00     0.213 HD
ENDBRANCH   6  12
BRANCH   3  14
HETATM   14  O   UNL     1      44.398  44.685  47.389  1.00  0.00    -0.380 OA
HETATM   15  H   UNL     1      44.529  44.241  48.252  1.00  0.00     0.211 HD
ENDBRANCH   3  14
BRANCH   5  16
HETATM   16  O   UNL     1      44.881  41.923  47.946  1.00  0.00    -0.378 OA
HETATM   17  H   UNL     1      45.475  42.464  48.505  1.00  0.00     0.211 HD
ENDBRANCH   5  16
TORSDOF 6
ENDMDL
MODEL 4
REMARK VINA RESULT:    -4.880      1.699      2.986
REMARK INTER + INTRA:          -6.040
REMARK INTER:                  -5.787
REMARK INTRA:                  -0.254
REMARK UNBOUND:                -0.162
REMARK  6 active torsions:
REMARK  status: ('A' for Active; 'I' for Inactive)
REMARK    1  A    between atoms: O_2  and  C_7 
REMARK    2  A    between atoms: O_3  and  C_8 
REMARK    3  A    between atoms: O_4  and  C_10 
REMARK    4  A    between atoms: O_5  and  C_11 
REMARK    5  A    between atoms: O_6  and  C_12 
REMARK    6  A    between atoms: C_9  and  C_12 
ROOT
HETATM    1  O   UNL     1      44.758  43.176  47.010  1.00  0.00    -0.327 OA
HETATM    2  C   UNL     1      44.452  42.061  44.851  1.00  0.00     0.170 C 
HETATM    3  C   UNL     1      43.558  43.222  44.401  1.00  0.00     0.172 C 
HETATM    4  C   UNL     1      44.416  41.930  46.381  1.00  0.00     0.176 C 
HETATM    5  C   UNL     1      43.907  44.498  45.164  1.00  0.00     0.197 C 
HETATM    6  C   UNL     1      43.850  44.223  46.676  1.00  0.00     0.263 C 
ENDROOT
BRANCH   4   7
HETATM    7  C   UNL     1      45.414  40.879  46.876  1.00  0.00     0.170 C 
BRANCH   7   8
HETATM    8  O   UNL     1      46.452  40.724  45.908  1.00  0.00    -0.380 OA
HETATM    9  H   UNL     1      47.260  40.517  46.421  1.00  0.00     0.211 HD
ENDBRANCH   7   8
ENDBRANCH   4   7
BRANCH   2  10
HETATM   10  O   UNL     1      44.023  40.868  44.186  1.00  0.00    -0.380 OA
HETATM   11  H   UNL     1      44.223  40.946  43.234  1.00  0.00     0.211 HD
ENDBRANCH   2  10
BRANCH   6  12
HETATM   12  O   UNL     1      44.214  45.395  47.394  1.00  0.00    -0.359 OA
HETATM   13  H   UNL     1      43.589  45.453  48.141  1.00  0.00     0.213 HD
ENDBRANCH   6  12
BRANCH   3  14
HETATM   14  O   UNL     1      43.714  43.460  42.994  1.00  0.00    -0.380 OA
HETATM   15  H   UNL     1      44.002  44.391  42.906  1.00  0.00     0.211 HD
ENDBRANCH   3  14
BRANCH   5  16
HETATM   16  O   UNL     1      43.001  45.550  44.808  1.00  0.00    -0.378 OA
HETATM   17  H   UNL     1      43.363  45.928  43.980  1.00  0.00     0.211 HD
ENDBRANCH   5  16
TORSDOF 6
ENDMDL
MODEL 5
REMARK VINA RESULT:    -4.486      2.334      4.276
REMARK INTER + INTRA:          -5.567
REMARK INTER:                  -5.345
REMARK INTRA:                  -0.222
REMARK UNBOUND:                -0.162
REMARK  6 active torsions:
REMARK  status: ('A' for Active; 'I' for Inactive)
REMARK    1  A    between atoms: O_2  and  C_7 
REMARK    2  A    between atoms: O_3  and  C_8 
REMARK    3  A    between atoms: O_4  and  C_10 
REMARK    4  A    between atoms: O_5  and  C_11 
REMARK    5  A    between atoms: O_6  and  C_12 
REMARK    6  A    between atoms: C_9  and  C_12 
ROOT
HETATM    1  O   UNL     1      46.264  43.289  47.231  1.00  0.00    -0.327 OA
HETATM    2  C   UNL     1      43.950  43.027  46.472  1.00  0.00     0.170 C 
HETATM    3  C   UNL     1      44.068  41.516  46.698  1.00  0.00     0.172 C 
HETATM    4  C   UNL     1      45.335  43.628  46.188  1.00  0.00     0.176 C 
HETATM    5  C   UNL     1      45.130  41.209  47.751  1.00  0.00     0.197 C 
HETATM    6  C   UNL     1      46.455  41.882  47.354  1.00  0.00     0.263 C 
ENDROOT
BRANCH   4   7
HETATM    7  C   UNL     1      45.276  45.156  46.108  1.00  0.00     0.170 C 
BRANCH   7   8
HETATM    8  O   UNL     1      44.286  45.637  47.020  1.00  0.00    -0.380 OA
HETATM    9  H   UNL     1      44.610  46.510  47.321  1.00  0.00     0.211 HD
ENDBRANCH   7   8
ENDBRANCH   4   7
BRANCH   2  10
HETATM   10  O   UNL     1      43.020  43.261  45.409  1.00  0.00    -0.380 OA
HETATM   11  H   UNL     1      43.463  43.094  44.557  1.00  0.00     0.211 HD
ENDBRANCH   2  10
BRANCH   6  12
HETATM   12  O   UNL     1      47.439  41.636  48.351  1.00  0.00    -0.359 OA
HETATM   13  H   UNL     1      48.020  42.419  48.350  1.00  0.00     0.213 HD
ENDBRANCH   6  12
BRANCH   3  14
HETATM   14  O   UNL     1      42.811  40.972  47.127  1.00  0.00    -0.380 OA
HETATM   15  H   UNL     1      42.190  41.728  47.173  1.00  0.00     0.211 HD
ENDBRANCH   3  14
BRANCH   5  16
HETATM   16  O   UNL     1      45.302  39.792  47.882  1.00  0.00    -0.378 OA
HETATM   17  H   UNL     1      44.643  39.399  47.275  1.00  0.00     0.211 HD
ENDBRANCH   5  16
TORSDOF 6
ENDMDL
MODEL 6
REMARK VINA RESULT:    -4.406      2.226      4.060
REMARK INTER + INTRA:          -5.470
REMARK INTER:                  -5.214
REMARK INTRA:                  -0.256
REMARK UNBOUND:                -0.162
REMARK  6 active torsions:
REMARK  status: ('A' for Active; 'I' for Inactive)
REMARK    1  A    between atoms: O_2  and  C_7 
REMARK    2  A    between atoms: O_3  and  C_8 
REMARK    3  A    between atoms: O_4  and  C_10 
REMARK    4  A    between atoms: O_5  and  C_11 
REMARK    5  A    between atoms: O_6  and  C_12 
REMARK    6  A    between atoms: C_9  and  C_12 
ROOT
HETATM    1  O   UNL     1      43.967  42.529  47.223  1.00  0.00    -0.327 OA
HETATM    2  C   UNL     1      44.264  42.961  44.831  1.00  0.00     0.170 C 
HETATM    3  C   UNL     1      44.582  41.476  44.623  1.00  0.00     0.172 C 
HETATM    4  C   UNL     1      44.618  43.380  46.265  1.00  0.00     0.176 C 
HETATM    5  C   UNL     1      43.939  40.628  45.717  1.00  0.00     0.197 C 
HETATM    6  C   UNL     1      44.360  41.165  47.096  1.00  0.00     0.263 C 
ENDROOT
BRANCH   4   7
HETATM    7  C   UNL     1      44.173  44.817  46.554  1.00  0.00     0.170 C 
BRANCH   7   8
HETATM    8  O   UNL     1      43.165  45.194  45.615  1.00  0.00    -0.380 OA
HETATM    9  H   UNL     1      42.463  44.517  45.697  1.00  0.00     0.211 HD
ENDBRANCH   7   8
ENDBRANCH   4   7
BRANCH   2  10
HETATM   10  O   UNL     1      44.968  43.723  43.845  1.00  0.00    -0.380 OA
HETATM   11  H   UNL     1      44.709  44.660  43.922  1.00  0.00     0.211 HD
ENDBRANCH   2  10
BRANCH   6  12
HETATM   12  O   UNL     1      43.733  40.407  48.122  1.00  0.00    -0.359 OA
HETATM   13  H   UNL     1      44.457  40.035  48.659  1.00  0.00     0.213 HD
ENDBRANCH   6  12
BRANCH   3  14
HETATM   14  O   UNL     1      44.103  41.034  43.344  1.00  0.00    -0.380 OA
HETATM   15  H   UNL     1      44.201  40.060  43.339  1.00  0.00     0.211 HD
ENDBRANCH   3  14
BRANCH   5  16
HETATM   16  O   UNL     1      44.324  39.255  45.571  1.00  0.00    -0.378 OA
HETATM   17  H   UNL     1      44.704  39.004  46.438  1.00  0.00     0.211 HD
ENDBRANCH   5  16
TORSDOF 6
ENDMDL
MODEL 7
REMARK VINA RESULT:    -4.347      9.770     11.361
REMARK INTER + INTRA:          -5.399
REMARK INTER:                  -5.340
REMARK INTRA:                  -0.059
REMARK UNBOUND:                -0.162
REMARK  6 active torsions:
REMARK  status: ('A' for Active; 'I' for Inactive)
REMARK    1  A    between atoms: O_2  and  C_7 
REMARK    2  A    between atoms: O_3  and  C_8 
REMARK    3  A    between atoms: O_4  and  C_10 
REMARK    4  A    between atoms: O_5  and  C_11 
REMARK    5  A    between atoms: O_6  and  C_12 
REMARK    6  A    between atoms: C_9  and  C_12 
ROOT
HETATM    1  O   UNL     1      37.305  44.032  54.380  1.00  0.00    -0.327 OA
HETATM    2  C   UNL     1      39.290  43.677  52.990  1.00  0.00     0.170 C 
HETATM    3  C   UNL     1      38.581  42.498  52.314  1.00  0.00     0.172 C 
HETATM    4  C   UNL     1      38.735  43.885  54.407  1.00  0.00     0.176 C 
HETATM    5  C   UNL     1      37.065  42.663  52.393  1.00  0.00     0.197 C 
HETATM    6  C   UNL     1      36.648  42.880  53.857  1.00  0.00     0.263 C 
ENDROOT
BRANCH   4   7
HETATM    7  C   UNL     1      39.311  45.147  55.054  1.00  0.00     0.170 C 
BRANCH   7   8
HETATM    8  O   UNL     1      38.768  46.298  54.406  1.00  0.00    -0.380 OA
HETATM    9  H   UNL     1      38.297  45.957  53.619  1.00  0.00     0.211 HD
ENDBRANCH   7   8
ENDBRANCH   4   7
BRANCH   2  10
HETATM   10  O   UNL     1      40.699  43.431  52.981  1.00  0.00    -0.380 OA
HETATM   11  H   UNL     1      40.967  43.146  52.088  1.00  0.00     0.211 HD
ENDBRANCH   2  10
BRANCH   6  12
HETATM   12  O   UNL     1      35.242  43.075  53.935  1.00  0.00    -0.359 OA
HETATM   13  H   UNL     1      34.841  42.230  53.661  1.00  0.00     0.213 HD
ENDBRANCH   6  12
BRANCH   3  14
HETATM   14  O   UNL     1      38.971  42.400  50.937  1.00  0.00    -0.380 OA
HETATM   15  H   UNL     1      39.083  43.320  50.620  1.00  0.00     0.211 HD
ENDBRANCH   3  14
BRANCH   5  16
HETATM   16  O   UNL     1      36.413  41.509  51.848  1.00  0.00    -0.378 OA
HETATM   17  H   UNL     1      35.806  41.859  51.164  1.00  0.00     0.211 HD
ENDBRANCH   5  16
TORSDOF 6
ENDMDL
MODEL 8
REMARK VINA RESULT:    -4.336      1.967      4.532
REMARK INTER + INTRA:          -5.386
REMARK INTER:                  -5.140
REMARK INTRA:                  -0.246
REMARK UNBOUND:                -0.162
REMARK  6 active torsions:
REMARK  status: ('A' for Active; 'I' for Inactive)
REMARK    1  A    between atoms: O_2  and  C_7 
REMARK    2  A    between atoms: O_3  and  C_8 
REMARK    3  A    between atoms: O_4  and  C_10 
REMARK    4  A    between atoms: O_5  and  C_11 
REMARK    5  A    between atoms: O_6  and  C_12 
REMARK    6  A    between atoms: C_9  and  C_12 
ROOT
HETATM    1  O   UNL     1      46.288  44.274  45.172  1.00  0.00    -0.327 OA
HETATM    2  C   UNL     1      45.739  42.399  46.649  1.00  0.00     0.170 C 
HETATM    3  C   UNL     1      44.270  42.526  46.230  1.00  0.00     0.172 C 
HETATM    4  C   UNL     1      46.448  43.754  46.502  1.00  0.00     0.176 C 
HETATM    5  C   UNL     1      44.156  43.164  44.848  1.00  0.00     0.197 C 
HETATM    6  C   UNL     1      44.922  44.499  44.835  1.00  0.00     0.263 C 
ENDROOT
BRANCH   4   7
HETATM    7  C   UNL     1      47.951  43.630  46.767  1.00  0.00     0.170 C 
BRANCH   7   8
HETATM    8  O   UNL     1      48.182  43.626  48.177  1.00  0.00    -0.380 OA
HETATM    9  H   UNL     1      48.342  42.690  48.414  1.00  0.00     0.211 HD
ENDBRANCH   7   8
ENDBRANCH   4   7
BRANCH   2  10
HETATM   10  O   UNL     1      45.792  41.892  47.986  1.00  0.00    -0.380 OA
HETATM   11  H   UNL     1      45.263  42.470  48.567  1.00  0.00     0.211 HD
ENDBRANCH   2  10
BRANCH   6  12
HETATM   12  O   UNL     1      44.856  45.081  43.539  1.00  0.00    -0.359 OA
HETATM   13  H   UNL     1      44.537  45.993  43.674  1.00  0.00     0.213 HD
ENDBRANCH   6  12
BRANCH   3  14
HETATM   14  O   UNL     1      43.642  41.236  46.204  1.00  0.00    -0.380 OA
HETATM   15  H   UNL     1      44.369  40.580  46.196  1.00  0.00     0.211 HD
ENDBRANCH   3  14
BRANCH   5  16
HETATM   16  O   UNL     1      42.779  43.369  44.509  1.00  0.00    -0.378 OA
HETATM   17  H   UNL     1      42.306  43.385  45.366  1.00  0.00     0.211 HD
ENDBRANCH   5  16
TORSDOF 6
ENDMDL
MODEL 9
REMARK VINA RESULT:    -4.193      2.208      4.125
REMARK INTER + INTRA:          -5.213
REMARK INTER:                  -4.961
REMARK INTRA:                  -0.253
REMARK UNBOUND:                -0.162
REMARK  6 active torsions:
REMARK  status: ('A' for Active; 'I' for Inactive)
REMARK    1  A    between atoms: O_2  and  C_7 
REMARK    2  A    between atoms: O_3  and  C_8 
REMARK    3  A    between atoms: O_4  and  C_10 
REMARK    4  A    between atoms: O_5  and  C_11 
REMARK    5  A    between atoms: O_6  and  C_12 
REMARK    6  A    between atoms: C_9  and  C_12 
ROOT
HETATM    1  O   UNL     1      43.659  42.396  46.006  1.00  0.00    -0.327 OA
HETATM    2  C   UNL     1      45.775  42.037  47.185  1.00  0.00     0.170 C 
HETATM    3  C   UNL     1      46.367  43.243  46.447  1.00  0.00     0.172 C 
HETATM    4  C   UNL     1      44.647  41.411  46.352  1.00  0.00     0.176 C 
HETATM    5  C   UNL     1      45.266  44.213  46.026  1.00  0.00     0.197 C 
HETATM    6  C   UNL     1      44.197  43.456  45.219  1.00  0.00     0.263 C 
ENDROOT
BRANCH   4   7
HETATM    7  C   UNL     1      43.931  40.300  47.125  1.00  0.00     0.170 C 
BRANCH   7   8
HETATM    8  O   UNL     1      44.250  40.412  48.513  1.00  0.00    -0.380 OA
HETATM    9  H   UNL     1      44.903  41.139  48.574  1.00  0.00     0.211 HD
ENDBRANCH   7   8
ENDBRANCH   4   7
BRANCH   2  10
HETATM   10  O   UNL     1      46.828  41.111  47.469  1.00  0.00    -0.380 OA
HETATM   11  H   UNL     1      47.213  40.800  46.629  1.00  0.00     0.211 HD
ENDBRANCH   2  10
BRANCH   6  12
HETATM   12  O   UNL     1      43.146  44.342  44.857  1.00  0.00    -0.359 OA
HETATM   13  H   UNL     1      43.133  45.033  45.546  1.00  0.00     0.213 HD
ENDBRANCH   6  12
BRANCH   3  14
HETATM   14  O   UNL     1      47.305  43.934  47.285  1.00  0.00    -0.380 OA
HETATM   15  H   UNL     1      48.068  44.156  46.714  1.00  0.00     0.211 HD
ENDBRANCH   3  14
BRANCH   5  16
HETATM   16  O   UNL     1      45.819  45.284  45.252  1.00  0.00    -0.378 OA
HETATM   17  H   UNL     1      46.285  44.847  44.510  1.00  0.00     0.211 HD
ENDBRANCH   5  16
TORSDOF 6
ENDMDL
MODEL 10
REMARK VINA RESULT:    -4.170      2.278      4.364
REMARK INTER + INTRA:          -5.186
REMARK INTER:                  -4.941
REMARK INTRA:                  -0.245
REMARK UNBOUND:                -0.162
REMARK  6 active torsions:
REMARK  status: ('A' for Active; 'I' for Inactive)
REMARK    1  A    between atoms: O_2  and  C_7 
REMARK    2  A    between atoms: O_3  and  C_8 
REMARK    3  A    between atoms: O_4  and  C_10 
REMARK    4  A    between atoms: O_5  and  C_11 
REMARK    5  A    between atoms: O_6  and  C_12 
REMARK    6  A    between atoms: C_9  and  C_12 
ROOT
HETATM    1  O   UNL     1      44.990  41.847  44.358  1.00  0.00    -0.327 OA
HETATM    2  C   UNL     1      44.942  42.972  46.533  1.00  0.00     0.170 C 
HETATM    3  C   UNL     1      45.133  41.614  47.217  1.00  0.00     0.172 C 
HETATM    4  C   UNL     1      44.262  42.785  45.169  1.00  0.00     0.176 C 
HETATM    5  C   UNL     1      45.832  40.632  46.280  1.00  0.00     0.197 C 
HETATM    6  C   UNL     1      45.061  40.553  44.951  1.00  0.00     0.263 C 
ENDROOT
BRANCH   4   7
HETATM    7  C   UNL     1      44.193  44.103  44.392  1.00  0.00     0.170 C 
BRANCH   7   8
HETATM    8  O   UNL     1      43.170  44.927  44.954  1.00  0.00    -0.380 OA
HETATM    9  H   UNL     1      43.446  45.848  44.771  1.00  0.00     0.211 HD
ENDBRANCH   7   8
ENDBRANCH   4   7
BRANCH   2  10
HETATM   10  O   UNL     1      44.196  43.825  47.407  1.00  0.00    -0.380 OA
HETATM   11  H   UNL     1      43.964  43.329  48.214  1.00  0.00     0.211 HD
ENDBRANCH   2  10
BRANCH   6  12
HETATM   12  O   UNL     1      45.727  39.672  44.057  1.00  0.00    -0.359 OA
HETATM   13  H   UNL     1      46.680  39.792  44.227  1.00  0.00     0.213 HD
ENDBRANCH   6  12
BRANCH   3  14
HETATM   14  O   UNL     1      45.914  41.759  48.412  1.00  0.00    -0.380 OA
HETATM   15  H   UNL     1      46.794  42.076  48.124  1.00  0.00     0.211 HD
ENDBRANCH   3  14
BRANCH   5  16
HETATM   16  O   UNL     1      45.916  39.339  46.892  1.00  0.00    -0.378 OA
HETATM   17  H   UNL     1      45.068  39.228  47.369  1.00  0.00     0.211 HD
ENDBRANCH   5  16
TORSDOF 6
ENDMDL
