MODEL 1
REMARK VINA RESULT:    -5.183      0.000      0.000
REMARK INTER + INTRA:          -6.434
REMARK INTER:                  -6.187
REMARK INTRA:                  -0.246
REMARK UNBOUND:                -0.190
REMARK  6 active torsions:
REMARK  status: ('A' for Active; 'I' for Inactive)
REMARK    1  A    between atoms: O_2  and  C_7 
REMARK    2  A    between atoms: O_3  and  C_8 
REMARK    3  A    between atoms: O_4  and  C_10 
REMARK    4  A    between atoms: O_5  and  C_11 
REMARK    5  A    between atoms: O_6  and  C_12 
REMARK    6  A    between atoms: C_9  and  C_12 
ROOT
HETATM    1  O   UNL     1      43.664  42.826  44.066  1.00  0.00    -0.327 OA
HETATM    2  C   UNL     1      44.208  43.140  46.434  1.00  0.00     0.170 C 
HETATM    3  C   UNL     1      44.556  44.603  46.139  1.00  0.00     0.172 C 
HETATM    4  C   UNL     1      44.406  42.286  45.172  1.00  0.00     0.176 C 
HETATM    5  C   UNL     1      43.808  45.098  44.904  1.00  0.00     0.197 C 
HETATM    6  C   UNL     1      44.078  44.146  43.725  1.00  0.00     0.263 C 
ENDROOT
BRANCH   4   7
HETATM    7  C   UNL     1      43.923  40.849  45.388  1.00  0.00     0.170 C 
BRANCH   7   8
HETATM    8  O   UNL     1      44.929  40.115  46.089  1.00  0.00    -0.380 OA
HETATM    9  H   UNL     1      44.447  39.432  46.599  1.00  0.00     0.211 HD
ENDBRANCH   7   8
ENDBRANCH   4   7
BRANCH   2  10
HETATM   10  O   UNL     1      45.006  42.691  47.533  1.00  0.00    -0.380 OA
HETATM   11  H   UNL     1      44.489  42.773  48.356  1.00  0.00     0.211 HD
ENDBRANCH   2  10
BRANCH   6  12
HETATM   12  O   UNL     1      43.352  44.576  42.581  1.00  0.00    -0.359 OA
HETATM   13  H   UNL     1      43.909  45.251  42.150  1.00  0.00     0.213 HD
ENDBRANCH   6  12
BRANCH   3  14
HETATM   14  O   UNL     1      44.217  45.435  47.258  1.00  0.00    -0.380 OA
HETATM   15  H   UNL     1      44.371  46.357  46.967  1.00  0.00     0.211 HD
ENDBRANCH   3  14
BRANCH   5  16
HETATM   16  O   UNL     1      44.216  46.432  44.579  1.00  0.00    -0.378 OA
HETATM   17  H   UNL     1      44.172  46.924  45.424  1.00  0.00     0.211 HD
ENDBRANCH   5  16
TORSDOF 6
ENDMDL
MODEL 2
REMARK VINA RESULT:    -5.167      1.128      2.799
REMARK INTER + INTRA:          -6.415
REMARK INTER:                  -6.166
REMARK INTRA:                  -0.248
REMARK UNBOUND:                -0.190
REMARK  6 active torsions:
REMARK  status: ('A' for Active; 'I' for Inactive)
REMARK    1  A    between atoms: O_2  and  C_7 
REMARK    2  A    between atoms: O_3  and  C_8 
REMARK    3  A    between atoms: O_4  and  C_10 
REMARK    4  A    between atoms: O_5  and  C_11 
REMARK    5  A    between atoms: O_6  and  C_12 
REMARK    6  A    between atoms: C_9  and  C_12 
ROOT
HETATM    1  O   UNL     1      44.064  43.201  46.365  1.00  0.00    -0.327 OA
HETATM    2  C   UNL     1      44.720  42.774  44.044  1.00  0.00     0.170 C 
HETATM    3  C   UNL     1      44.515  44.261  43.734  1.00  0.00     0.172 C 
HETATM    4  C   UNL     1      43.834  42.355  45.226  1.00  0.00     0.176 C 
HETATM    5  C   UNL     1      44.686  45.104  44.996  1.00  0.00     0.197 C 
HETATM    6  C   UNL     1      43.758  44.567  46.100  1.00  0.00     0.263 C 
ENDROOT
BRANCH   4   7
HETATM    7  C   UNL     1      44.124  40.915  45.661  1.00  0.00     0.170 C 
BRANCH   7   8
HETATM    8  O   UNL     1      45.473  40.585  45.323  1.00  0.00    -0.380 OA
HETATM    9  H   UNL     1      45.773  39.967  46.020  1.00  0.00     0.211 HD
ENDBRANCH   7   8
ENDBRANCH   4   7
BRANCH   2  10
HETATM   10  O   UNL     1      44.452  42.017  42.860  1.00  0.00    -0.380 OA
HETATM   11  H   UNL     1      45.298  41.784  42.433  1.00  0.00     0.211 HD
ENDBRANCH   2  10
BRANCH   6  12
HETATM   12  O   UNL     1      43.940  45.321  47.292  1.00  0.00    -0.359 OA
HETATM   13  H   UNL     1      43.870  46.257  47.028  1.00  0.00     0.213 HD
ENDBRANCH   6  12
BRANCH   3  14
HETATM   14  O   UNL     1      45.457  44.702  42.745  1.00  0.00    -0.380 OA
HETATM   15  H   UNL     1      45.178  44.290  41.902  1.00  0.00     0.211 HD
ENDBRANCH   3  14
BRANCH   5  16
HETATM   16  O   UNL     1      44.395  46.478  44.716  1.00  0.00    -0.378 OA
HETATM   17  H   UNL     1      44.701  46.621  43.797  1.00  0.00     0.211 HD
ENDBRANCH   5  16
TORSDOF 6
ENDMDL
MODEL 3
REMARK VINA RESULT:    -5.134      1.065      3.638
REMARK INTER + INTRA:          -6.375
REMARK INTER:                  -6.184
REMARK INTRA:                  -0.190
REMARK UNBOUND:                -0.190
REMARK  6 active torsions:
REMARK  status: ('A' for Active; 'I' for Inactive)
REMARK    1  A    between atoms: O_2  and  C_7 
REMARK    2  A    between atoms: O_3  and  C_8 
REMARK    3  A    between atoms: O_4  and  C_10 
REMARK    4  A    between atoms: O_5  and  C_11 
REMARK    5  A    between atoms: O_6  and  C_12 
REMARK    6  A    between atoms: C_9  and  C_12 
ROOT
HETATM    1  O   UNL     1      44.658  42.159  44.153  1.00  0.00    -0.327 OA
HETATM    2  C   UNL     1      44.058  44.379  44.997  1.00  0.00     0.170 C 
HETATM    3  C   UNL     1      43.951  43.791  46.408  1.00  0.00     0.172 C 
HETATM    4  C   UNL     1      43.791  43.288  43.949  1.00  0.00     0.176 C 
HETATM    5  C   UNL     1      44.823  42.545  46.542  1.00  0.00     0.197 C 
HETATM    6  C   UNL     1      44.466  41.548  45.426  1.00  0.00     0.263 C 
ENDROOT
BRANCH   4   7
HETATM    7  C   UNL     1      44.039  43.803  42.529  1.00  0.00     0.170 C 
BRANCH   7   8
HETATM    8  O   UNL     1      45.179  44.664  42.533  1.00  0.00    -0.380 OA
HETATM    9  H   UNL     1      45.421  44.783  41.592  1.00  0.00     0.211 HD
ENDBRANCH   7   8
ENDBRANCH   4   7
BRANCH   2  10
HETATM   10  O   UNL     1      43.151  45.480  44.888  1.00  0.00    -0.380 OA
HETATM   11  H   UNL     1      42.734  45.463  44.007  1.00  0.00     0.211 HD
ENDBRANCH   2  10
BRANCH   6  12
HETATM   12  O   UNL     1      45.302  40.401  45.518  1.00  0.00    -0.359 OA
HETATM   13  H   UNL     1      46.216  40.740  45.538  1.00  0.00     0.213 HD
ENDBRANCH   6  12
BRANCH   3  14
HETATM   14  O   UNL     1      44.361  44.758  47.387  1.00  0.00    -0.380 OA
HETATM   15  H   UNL     1      45.233  44.458  47.716  1.00  0.00     0.211 HD
ENDBRANCH   3  14
BRANCH   5  16
HETATM   16  O   UNL     1      44.639  41.948  47.831  1.00  0.00    -0.378 OA
HETATM   17  H   UNL     1      45.523  41.970  48.251  1.00  0.00     0.211 HD
ENDBRANCH   5  16
TORSDOF 6
ENDMDL
MODEL 4
REMARK VINA RESULT:    -4.525     11.146     11.718
REMARK INTER + INTRA:          -5.641
REMARK INTER:                  -5.386
REMARK INTRA:                  -0.255
REMARK UNBOUND:                -0.190
REMARK  6 active torsions:
REMARK  status: ('A' for Active; 'I' for Inactive)
REMARK    1  A    between atoms: O_2  and  C_7 
REMARK    2  A    between atoms: O_3  and  C_8 
REMARK    3  A    between atoms: O_4  and  C_10 
REMARK    4  A    between atoms: O_5  and  C_11 
REMARK    5  A    between atoms: O_6  and  C_12 
REMARK    6  A    between atoms: C_9  and  C_12 
ROOT
HETATM    1  O   UNL     1      51.210  37.475  39.077  1.00  0.00    -0.327 OA
HETATM    2  C   UNL     1      49.470  36.497  37.658  1.00  0.00     0.170 C 
HETATM    3  C   UNL     1      49.436  37.794  36.842  1.00  0.00     0.172 C 
HETATM    4  C   UNL     1      49.948  36.787  39.088  1.00  0.00     0.176 C 
HETATM    5  C   UNL     1      50.771  38.527  36.937  1.00  0.00     0.197 C 
HETATM    6  C   UNL     1      51.138  38.736  38.416  1.00  0.00     0.263 C 
ENDROOT
BRANCH   4   7
HETATM    7  C   UNL     1      50.140  35.494  39.886  1.00  0.00     0.170 C 
BRANCH   7   8
HETATM    8  O   UNL     1      50.336  34.407  38.981  1.00  0.00    -0.380 OA
HETATM    9  H   UNL     1      51.306  34.309  38.893  1.00  0.00     0.211 HD
ENDBRANCH   7   8
ENDBRANCH   4   7
BRANCH   2  10
HETATM   10  O   UNL     1      48.171  35.898  37.622  1.00  0.00    -0.380 OA
HETATM   11  H   UNL     1      47.969  35.631  36.706  1.00  0.00     0.211 HD
ENDBRANCH   2  10
BRANCH   6  12
HETATM   12  O   UNL     1      52.400  39.381  38.515  1.00  0.00    -0.359 OA
HETATM   13  H   UNL     1      52.320  40.202  37.994  1.00  0.00     0.213 HD
ENDBRANCH   6  12
BRANCH   3  14
HETATM   14  O   UNL     1      49.152  37.512  35.463  1.00  0.00    -0.380 OA
HETATM   15  H   UNL     1      49.955  37.765  34.964  1.00  0.00     0.211 HD
ENDBRANCH   3  14
BRANCH   5  16
HETATM   16  O   UNL     1      50.695  39.784  36.253  1.00  0.00    -0.378 OA
HETATM   17  H   UNL     1      51.151  39.638  35.399  1.00  0.00     0.211 HD
ENDBRANCH   5  16
TORSDOF 6
ENDMDL
MODEL 5
REMARK VINA RESULT:    -4.506      2.489      3.384
REMARK INTER + INTRA:          -5.618
REMARK INTER:                  -5.372
REMARK INTRA:                  -0.247
REMARK UNBOUND:                -0.190
REMARK  6 active torsions:
REMARK  status: ('A' for Active; 'I' for Inactive)
REMARK    1  A    between atoms: O_2  and  C_7 
REMARK    2  A    between atoms: O_3  and  C_8 
REMARK    3  A    between atoms: O_4  and  C_10 
REMARK    4  A    between atoms: O_5  and  C_11 
REMARK    5  A    between atoms: O_6  and  C_12 
REMARK    6  A    between atoms: C_9  and  C_12 
ROOT
HETATM    1  O   UNL     1      46.709  44.434  45.264  1.00  0.00    -0.327 OA
HETATM    2  C   UNL     1      46.367  42.747  47.007  1.00  0.00     0.170 C 
HETATM    3  C   UNL     1      44.863  43.037  46.964  1.00  0.00     0.172 C 
HETATM    4  C   UNL     1      47.156  43.985  46.554  1.00  0.00     0.176 C 
HETATM    5  C   UNL     1      44.459  43.593  45.601  1.00  0.00     0.197 C 
HETATM    6  C   UNL     1      45.335  44.812  45.265  1.00  0.00     0.263 C 
ENDROOT
BRANCH   4   7
HETATM    7  C   UNL     1      48.653  43.684  46.439  1.00  0.00     0.170 C 
BRANCH   7   8
HETATM    8  O   UNL     1      49.233  43.679  47.745  1.00  0.00    -0.380 OA
HETATM    9  H   UNL     1      49.520  42.756  47.901  1.00  0.00     0.211 HD
ENDBRANCH   7   8
ENDBRANCH   4   7
BRANCH   2  10
HETATM   10  O   UNL     1      46.716  42.326  48.329  1.00  0.00    -0.380 OA
HETATM   11  H   UNL     1      47.229  43.033  48.764  1.00  0.00     0.211 HD
ENDBRANCH   2  10
BRANCH   6  12
HETATM   12  O   UNL     1      44.993  45.312  43.978  1.00  0.00    -0.359 OA
HETATM   13  H   UNL     1      44.514  44.590  43.531  1.00  0.00     0.213 HD
ENDBRANCH   6  12
BRANCH   3  14
HETATM   14  O   UNL     1      44.114  41.840  47.223  1.00  0.00    -0.380 OA
HETATM   15  H   UNL     1      43.488  41.745  46.476  1.00  0.00     0.211 HD
ENDBRANCH   3  14
BRANCH   5  16
HETATM   16  O   UNL     1      43.072  43.953  45.604  1.00  0.00    -0.378 OA
HETATM   17  H   UNL     1      42.595  43.127  45.826  1.00  0.00     0.211 HD
ENDBRANCH   5  16
TORSDOF 6
ENDMDL
MODEL 6
REMARK VINA RESULT:    -4.466      1.894      4.822
REMARK INTER + INTRA:          -5.570
REMARK INTER:                  -5.347
REMARK INTRA:                  -0.222
REMARK UNBOUND:                -0.190
REMARK  6 active torsions:
REMARK  status: ('A' for Active; 'I' for Inactive)
REMARK    1  A    between atoms: O_2  and  C_7 
REMARK    2  A    between atoms: O_3  and  C_8 
REMARK    3  A    between atoms: O_4  and  C_10 
REMARK    4  A    between atoms: O_5  and  C_11 
REMARK    5  A    between atoms: O_6  and  C_12 
REMARK    6  A    between atoms: C_9  and  C_12 
ROOT
HETATM    1  O   UNL     1      46.247  43.267  47.220  1.00  0.00    -0.327 OA
HETATM    2  C   UNL     1      43.918  42.935  46.538  1.00  0.00     0.170 C 
HETATM    3  C   UNL     1      44.100  41.425  46.725  1.00  0.00     0.172 C 
HETATM    4  C   UNL     1      45.268  43.594  46.219  1.00  0.00     0.176 C 
HETATM    5  C   UNL     1      45.211  41.135  47.732  1.00  0.00     0.197 C 
HETATM    6  C   UNL     1      46.495  41.866  47.303  1.00  0.00     0.263 C 
ENDROOT
BRANCH   4   7
HETATM    7  C   UNL     1      45.150  45.120  46.176  1.00  0.00     0.170 C 
BRANCH   7   8
HETATM    8  O   UNL     1      44.177  45.543  47.133  1.00  0.00    -0.380 OA
HETATM    9  H   UNL     1      43.731  44.725  47.432  1.00  0.00     0.211 HD
ENDBRANCH   7   8
ENDBRANCH   4   7
BRANCH   2  10
HETATM   10  O   UNL     1      42.942  43.156  45.515  1.00  0.00    -0.380 OA
HETATM   11  H   UNL     1      42.058  43.209  45.925  1.00  0.00     0.211 HD
ENDBRANCH   2  10
BRANCH   6  12
HETATM   12  O   UNL     1      47.523  41.636  48.258  1.00  0.00    -0.359 OA
HETATM   13  H   UNL     1      48.305  42.116  47.927  1.00  0.00     0.213 HD
ENDBRANCH   6  12
BRANCH   3  14
HETATM   14  O   UNL     1      42.881  40.825  47.186  1.00  0.00    -0.380 OA
HETATM   15  H   UNL     1      43.087  39.882  47.352  1.00  0.00     0.211 HD
ENDBRANCH   3  14
BRANCH   5  16
HETATM   16  O   UNL     1      45.440  39.724  47.824  1.00  0.00    -0.378 OA
HETATM   17  H   UNL     1      45.912  39.489  46.999  1.00  0.00     0.211 HD
ENDBRANCH   5  16
TORSDOF 6
ENDMDL
MODEL 7
REMARK VINA RESULT:    -4.454      9.150     10.653
REMARK INTER + INTRA:          -5.556
REMARK INTER:                  -5.505
REMARK INTRA:                  -0.051
REMARK UNBOUND:                -0.190
REMARK  6 active torsions:
REMARK  status: ('A' for Active; 'I' for Inactive)
REMARK    1  A    between atoms: O_2  and  C_7 
REMARK    2  A    between atoms: O_3  and  C_8 
REMARK    3  A    between atoms: O_4  and  C_10 
REMARK    4  A    between atoms: O_5  and  C_11 
REMARK    5  A    between atoms: O_6  and  C_12 
REMARK    6  A    between atoms: C_9  and  C_12 
ROOT
HETATM    1  O   UNL     1      37.452  44.236  54.196  1.00  0.00    -0.327 OA
HETATM    2  C   UNL     1      39.407  43.551  52.889  1.00  0.00     0.170 C 
HETATM    3  C   UNL     1      38.574  42.421  52.275  1.00  0.00     0.172 C 
HETATM    4  C   UNL     1      38.852  43.923  54.272  1.00  0.00     0.176 C 
HETATM    5  C   UNL     1      37.088  42.770  52.299  1.00  0.00     0.197 C 
HETATM    6  C   UNL     1      36.671  43.137  53.733  1.00  0.00     0.263 C 
ENDROOT
BRANCH   4   7
HETATM    7  C   UNL     1      39.564  45.150  54.850  1.00  0.00     0.170 C 
BRANCH   7   8
HETATM    8  O   UNL     1      38.915  46.333  54.381  1.00  0.00    -0.380 OA
HETATM    9  H   UNL     1      38.121  46.436  54.944  1.00  0.00     0.211 HD
ENDBRANCH   7   8
ENDBRANCH   4   7
BRANCH   2  10
HETATM   10  O   UNL     1      40.776  43.139  52.937  1.00  0.00    -0.380 OA
HETATM   11  H   UNL     1      40.885  42.334  52.398  1.00  0.00     0.211 HD
ENDBRANCH   2  10
BRANCH   6  12
HETATM   12  O   UNL     1      35.298  43.504  53.758  1.00  0.00    -0.359 OA
HETATM   13  H   UNL     1      35.137  43.872  54.647  1.00  0.00     0.213 HD
ENDBRANCH   6  12
BRANCH   3  14
HETATM   14  O   UNL     1      38.978  42.180  50.918  1.00  0.00    -0.380 OA
HETATM   15  H   UNL     1      39.141  43.061  50.523  1.00  0.00     0.211 HD
ENDBRANCH   3  14
BRANCH   5  16
HETATM   16  O   UNL     1      36.313  41.666  51.815  1.00  0.00    -0.378 OA
HETATM   17  H   UNL     1      36.526  41.605  50.861  1.00  0.00     0.211 HD
ENDBRANCH   5  16
TORSDOF 6
ENDMDL
MODEL 8
REMARK VINA RESULT:    -4.332      2.087      2.725
REMARK INTER + INTRA:          -5.408
REMARK INTER:                  -5.153
REMARK INTRA:                  -0.256
REMARK UNBOUND:                -0.190
REMARK  6 active torsions:
REMARK  status: ('A' for Active; 'I' for Inactive)
REMARK    1  A    between atoms: O_2  and  C_7 
REMARK    2  A    between atoms: O_3  and  C_8 
REMARK    3  A    between atoms: O_4  and  C_10 
REMARK    4  A    between atoms: O_5  and  C_11 
REMARK    5  A    between atoms: O_6  and  C_12 
REMARK    6  A    between atoms: C_9  and  C_12 
ROOT
HETATM    1  O   UNL     1      46.729  42.443  46.076  1.00  0.00    -0.327 OA
HETATM    2  C   UNL     1      44.454  41.751  46.665  1.00  0.00     0.170 C 
HETATM    3  C   UNL     1      44.075  43.225  46.847  1.00  0.00     0.172 C 
HETATM    4  C   UNL     1      45.959  41.560  46.908  1.00  0.00     0.176 C 
HETATM    5  C   UNL     1      44.981  44.123  46.008  1.00  0.00     0.197 C 
HETATM    6  C   UNL     1      46.453  43.817  46.337  1.00  0.00     0.263 C 
ENDROOT
BRANCH   4   7
HETATM    7  C   UNL     1      46.400  40.129  46.586  1.00  0.00     0.170 C 
BRANCH   7   8
HETATM    8  O   UNL     1      45.441  39.525  45.717  1.00  0.00    -0.380 OA
HETATM    9  H   UNL     1      44.958  38.877  46.270  1.00  0.00     0.211 HD
ENDBRANCH   7   8
ENDBRANCH   4   7
BRANCH   2  10
HETATM   10  O   UNL     1      43.649  40.958  47.542  1.00  0.00    -0.380 OA
HETATM   11  H   UNL     1      43.232  40.241  47.030  1.00  0.00     0.211 HD
ENDBRANCH   2  10
BRANCH   6  12
HETATM   12  O   UNL     1      47.305  44.620  45.531  1.00  0.00    -0.359 OA
HETATM   13  H   UNL     1      48.215  44.359  45.765  1.00  0.00     0.213 HD
ENDBRANCH   6  12
BRANCH   3  14
HETATM   14  O   UNL     1      42.710  43.443  46.460  1.00  0.00    -0.380 OA
HETATM   15  H   UNL     1      42.554  44.406  46.547  1.00  0.00     0.211 HD
ENDBRANCH   3  14
BRANCH   5  16
HETATM   16  O   UNL     1      44.684  45.502  46.263  1.00  0.00    -0.378 OA
HETATM   17  H   UNL     1      44.413  45.534  47.203  1.00  0.00     0.211 HD
ENDBRANCH   5  16
TORSDOF 6
ENDMDL
MODEL 9
REMARK VINA RESULT:    -4.199      1.933      2.200
REMARK INTER + INTRA:          -5.249
REMARK INTER:                  -5.022
REMARK INTRA:                  -0.227
REMARK UNBOUND:                -0.190
REMARK  6 active torsions:
REMARK  status: ('A' for Active; 'I' for Inactive)
REMARK    1  A    between atoms: O_2  and  C_7 
REMARK    2  A    between atoms: O_3  and  C_8 
REMARK    3  A    between atoms: O_4  and  C_10 
REMARK    4  A    between atoms: O_5  and  C_11 
REMARK    5  A    between atoms: O_6  and  C_12 
REMARK    6  A    between atoms: C_9  and  C_12 
ROOT
HETATM    1  O   UNL     1      43.430  42.680  46.123  1.00  0.00    -0.327 OA
HETATM    2  C   UNL     1      45.583  42.071  47.121  1.00  0.00     0.170 C 
HETATM    3  C   UNL     1      46.225  43.271  46.416  1.00  0.00     0.172 C 
HETATM    4  C   UNL     1      44.351  41.596  46.336  1.00  0.00     0.176 C 
HETATM    5  C   UNL     1      45.186  44.353  46.136  1.00  0.00     0.197 C 
HETATM    6  C   UNL     1      44.004  43.741  45.364  1.00  0.00     0.263 C 
ENDROOT
BRANCH   4   7
HETATM    7  C   UNL     1      43.595  40.498  47.090  1.00  0.00     0.170 C 
BRANCH   7   8
HETATM    8  O   UNL     1      44.168  40.341  48.389  1.00  0.00    -0.380 OA
HETATM    9  H   UNL     1      44.934  40.950  48.414  1.00  0.00     0.211 HD
ENDBRANCH   7   8
ENDBRANCH   4   7
BRANCH   2  10
HETATM   10  O   UNL     1      46.568  41.045  47.272  1.00  0.00    -0.380 OA
HETATM   11  H   UNL     1      46.554  40.723  48.192  1.00  0.00     0.211 HD
ENDBRANCH   2  10
BRANCH   6  12
HETATM   12  O   UNL     1      43.012  44.733  45.134  1.00  0.00    -0.359 OA
HETATM   13  H   UNL     1      43.453  45.436  44.622  1.00  0.00     0.213 HD
ENDBRANCH   6  12
BRANCH   3  14
HETATM   14  O   UNL     1      47.274  43.825  47.225  1.00  0.00    -0.380 OA
HETATM   15  H   UNL     1      48.099  43.381  46.941  1.00  0.00     0.211 HD
ENDBRANCH   3  14
BRANCH   5  16
HETATM   16  O   UNL     1      45.776  45.424  45.389  1.00  0.00    -0.378 OA
HETATM   17  H   UNL     1      45.376  45.364  44.498  1.00  0.00     0.211 HD
ENDBRANCH   5  16
TORSDOF 6
ENDMDL
MODEL 10
REMARK VINA RESULT:    -4.098      1.534      4.176
REMARK INTER + INTRA:          -5.126
REMARK INTER:                  -4.885
REMARK INTRA:                  -0.242
REMARK UNBOUND:                -0.190
REMARK  6 active torsions:
REMARK  status: ('A' for Active; 'I' for Inactive)
REMARK    1  A    between atoms: O_2  and  C_7 
REMARK    2  A    between atoms: O_3  and  C_8 
REMARK    3  A    between atoms: O_4  and  C_10 
REMARK    4  A    between atoms: O_5  and  C_11 
REMARK    5  A    between atoms: O_6  and  C_12 
REMARK    6  A    between atoms: C_9  and  C_12 
ROOT
HETATM    1  O   UNL     1      44.892  41.722  44.362  1.00  0.00    -0.327 OA
HETATM    2  C   UNL     1      44.921  42.848  46.537  1.00  0.00     0.170 C 
HETATM    3  C   UNL     1      45.012  41.479  47.221  1.00  0.00     0.172 C 
HETATM    4  C   UNL     1      44.232  42.710  45.172  1.00  0.00     0.176 C 
HETATM    5  C   UNL     1      45.640  40.449  46.286  1.00  0.00     0.197 C 
HETATM    6  C   UNL     1      44.868  40.426  44.956  1.00  0.00     0.263 C 
ENDROOT
BRANCH   4   7
HETATM    7  C   UNL     1      44.260  44.029  44.395  1.00  0.00     0.170 C 
BRANCH   7   8
HETATM    8  O   UNL     1      43.166  44.846  44.816  1.00  0.00    -0.380 OA
HETATM    9  H   UNL     1      43.036  45.499  44.098  1.00  0.00     0.211 HD
ENDBRANCH   7   8
ENDBRANCH   4   7
BRANCH   2  10
HETATM   10  O   UNL     1      44.238  43.753  47.410  1.00  0.00    -0.380 OA
HETATM   11  H   UNL     1      44.806  44.529  47.572  1.00  0.00     0.211 HD
ENDBRANCH   2  10
BRANCH   6  12
HETATM   12  O   UNL     1      45.470  39.499  44.063  1.00  0.00    -0.359 OA
HETATM   13  H   UNL     1      45.170  38.617  44.353  1.00  0.00     0.213 HD
ENDBRANCH   6  12
BRANCH   3  14
HETATM   14  O   UNL     1      45.800  41.568  48.418  1.00  0.00    -0.380 OA
HETATM   15  H   UNL     1      45.918  42.523  48.595  1.00  0.00     0.211 HD
ENDBRANCH   3  14
BRANCH   5  16
HETATM   16  O   UNL     1      45.629  39.153  46.898  1.00  0.00    -0.378 OA
HETATM   17  H   UNL     1      44.699  38.852  46.840  1.00  0.00     0.211 HD
ENDBRANCH   5  16
TORSDOF 6
ENDMDL
