MODEL 1
REMARK VINA RESULT:    -5.428      0.000      0.000
REMARK INTER + INTRA:          -6.751
REMARK INTER:                  -6.505
REMARK INTRA:                  -0.245
REMARK UNBOUND:                -0.211
REMARK  6 active torsions:
REMARK  status: ('A' for Active; 'I' for Inactive)
REMARK    1  A    between atoms: O_2  and  C_7 
REMARK    2  A    between atoms: O_3  and  C_8 
REMARK    3  A    between atoms: O_4  and  C_10 
REMARK    4  A    between atoms: O_5  and  C_11 
REMARK    5  A    between atoms: O_6  and  C_12 
REMARK    6  A    between atoms: C_9  and  C_12 
ROOT
HETATM    1  O   UNL     1      43.649  43.027  44.283  1.00  0.00    -0.327 OA
HETATM    2  C   UNL     1      44.520  43.565  46.508  1.00  0.00     0.170 C 
HETATM    3  C   UNL     1      44.840  44.982  46.017  1.00  0.00     0.172 C 
HETATM    4  C   UNL     1      44.531  42.583  45.327  1.00  0.00     0.176 C 
HETATM    5  C   UNL     1      43.932  45.367  44.852  1.00  0.00     0.197 C 
HETATM    6  C   UNL     1      44.026  44.295  43.752  1.00  0.00     0.263 C 
ENDROOT
BRANCH   4   7
HETATM    7  C   UNL     1      44.067  41.188  45.755  1.00  0.00     0.170 C 
BRANCH   7   8
HETATM    8  O   UNL     1      45.162  40.490  46.350  1.00  0.00    -0.380 OA
HETATM    9  H   UNL     1      45.820  40.377  45.635  1.00  0.00     0.211 HD
ENDBRANCH   7   8
ENDBRANCH   4   7
BRANCH   2  10
HETATM   10  O   UNL     1      45.458  43.210  47.528  1.00  0.00    -0.380 OA
HETATM   11  H   UNL     1      44.994  42.714  48.228  1.00  0.00     0.211 HD
ENDBRANCH   2  10
BRANCH   6  12
HETATM   12  O   UNL     1      43.153  44.625  42.680  1.00  0.00    -0.359 OA
HETATM   13  H   UNL     1      42.940  45.571  42.792  1.00  0.00     0.213 HD
ENDBRANCH   6  12
BRANCH   3  14
HETATM   14  O   UNL     1      44.669  45.931  47.079  1.00  0.00    -0.380 OA
HETATM   15  H   UNL     1      44.615  45.409  47.905  1.00  0.00     0.211 HD
ENDBRANCH   3  14
BRANCH   5  16
HETATM   16  O   UNL     1      44.306  46.652  44.337  1.00  0.00    -0.378 OA
HETATM   17  H   UNL     1      43.634  47.272  44.688  1.00  0.00     0.211 HD
ENDBRANCH   5  16
TORSDOF 6
ENDMDL
MODEL 2
REMARK VINA RESULT:    -4.951      1.314      3.304
REMARK INTER + INTRA:          -6.175
REMARK INTER:                  -6.131
REMARK INTRA:                  -0.044
REMARK UNBOUND:                -0.211
REMARK  6 active torsions:
REMARK  status: ('A' for Active; 'I' for Inactive)
REMARK    1  A    between atoms: O_2  and  C_7 
REMARK    2  A    between atoms: O_3  and  C_8 
REMARK    3  A    between atoms: O_4  and  C_10 
REMARK    4  A    between atoms: O_5  and  C_11 
REMARK    5  A    between atoms: O_6  and  C_12 
REMARK    6  A    between atoms: C_9  and  C_12 
ROOT
HETATM    1  O   UNL     1      44.743  42.440  44.650  1.00  0.00    -0.327 OA
HETATM    2  C   UNL     1      44.095  44.472  43.446  1.00  0.00     0.170 C 
HETATM    3  C   UNL     1      44.004  45.212  44.785  1.00  0.00     0.172 C 
HETATM    4  C   UNL     1      43.851  42.970  43.655  1.00  0.00     0.176 C 
HETATM    5  C   UNL     1      44.904  44.553  45.828  1.00  0.00     0.197 C 
HETATM    6  C   UNL     1      44.567  43.055  45.923  1.00  0.00     0.263 C 
ENDROOT
BRANCH   4   7
HETATM    7  C   UNL     1      44.085  42.180  42.364  1.00  0.00     0.170 C 
BRANCH   7   8
HETATM    8  O   UNL     1      44.399  40.825  42.693  1.00  0.00    -0.380 OA
HETATM    9  H   UNL     1      44.062  40.691  43.602  1.00  0.00     0.211 HD
ENDBRANCH   7   8
ENDBRANCH   4   7
BRANCH   2  10
HETATM   10  O   UNL     1      43.164  45.059  42.532  1.00  0.00    -0.380 OA
HETATM   11  H   UNL     1      43.382  46.003  42.418  1.00  0.00     0.211 HD
ENDBRANCH   2  10
BRANCH   6  12
HETATM   12  O   UNL     1      45.428  42.426  46.863  1.00  0.00    -0.359 OA
HETATM   13  H   UNL     1      45.118  41.503  46.931  1.00  0.00     0.213 HD
ENDBRANCH   6  12
BRANCH   3  14
HETATM   14  O   UNL     1      44.394  46.584  44.628  1.00  0.00    -0.380 OA
HETATM   15  H   UNL     1      44.587  46.916  45.528  1.00  0.00     0.211 HD
ENDBRANCH   3  14
BRANCH   5  16
HETATM   16  O   UNL     1      44.735  45.191  47.100  1.00  0.00    -0.378 OA
HETATM   17  H   UNL     1      43.779  45.112  47.299  1.00  0.00     0.211 HD
ENDBRANCH   5  16
TORSDOF 6
ENDMDL
MODEL 3
REMARK VINA RESULT:    -4.789      1.469      3.796
REMARK INTER + INTRA:          -5.980
REMARK INTER:                  -5.768
REMARK INTRA:                  -0.211
REMARK UNBOUND:                -0.211
REMARK  6 active torsions:
REMARK  status: ('A' for Active; 'I' for Inactive)
REMARK    1  A    between atoms: O_2  and  C_7 
REMARK    2  A    between atoms: O_3  and  C_8 
REMARK    3  A    between atoms: O_4  and  C_10 
REMARK    4  A    between atoms: O_5  and  C_11 
REMARK    5  A    between atoms: O_6  and  C_12 
REMARK    6  A    between atoms: C_9  and  C_12 
ROOT
HETATM    1  O   UNL     1      44.894  41.785  44.153  1.00  0.00    -0.327 OA
HETATM    2  C   UNL     1      44.159  43.993  44.918  1.00  0.00     0.170 C 
HETATM    3  C   UNL     1      44.128  43.462  46.356  1.00  0.00     0.172 C 
HETATM    4  C   UNL     1      43.945  42.840  43.926  1.00  0.00     0.176 C 
HETATM    5  C   UNL     1      45.090  42.287  46.518  1.00  0.00     0.197 C 
HETATM    6  C   UNL     1      44.778  41.218  45.456  1.00  0.00     0.263 C 
ENDROOT
BRANCH   4   7
HETATM    7  C   UNL     1      44.121  43.308  42.478  1.00  0.00     0.170 C 
BRANCH   7   8
HETATM    8  O   UNL     1      45.152  44.297  42.426  1.00  0.00    -0.380 OA
HETATM    9  H   UNL     1      45.249  44.523  41.479  1.00  0.00     0.211 HD
ENDBRANCH   7   8
ENDBRANCH   4   7
BRANCH   2  10
HETATM   10  O   UNL     1      43.173  45.021  44.788  1.00  0.00    -0.380 OA
HETATM   11  H   UNL     1      43.565  45.874  45.054  1.00  0.00     0.211 HD
ENDBRANCH   2  10
BRANCH   6  12
HETATM   12  O   UNL     1      45.695  40.139  45.573  1.00  0.00    -0.359 OA
HETATM   13  H   UNL     1      46.420  40.466  46.137  1.00  0.00     0.213 HD
ENDBRANCH   6  12
BRANCH   3  14
HETATM   14  O   UNL     1      44.492  44.496  47.281  1.00  0.00    -0.380 OA
HETATM   15  H   UNL     1      45.183  44.114  47.859  1.00  0.00     0.211 HD
ENDBRANCH   3  14
BRANCH   5  16
HETATM   16  O   UNL     1      44.980  41.735  47.836  1.00  0.00    -0.378 OA
HETATM   17  H   UNL     1      45.416  40.860  47.783  1.00  0.00     0.211 HD
ENDBRANCH   5  16
TORSDOF 6
ENDMDL
MODEL 4
REMARK VINA RESULT:    -4.763      1.661      4.023
REMARK INTER + INTRA:          -5.949
REMARK INTER:                  -5.728
REMARK INTRA:                  -0.221
REMARK UNBOUND:                -0.211
REMARK  6 active torsions:
REMARK  status: ('A' for Active; 'I' for Inactive)
REMARK    1  A    between atoms: O_2  and  C_7 
REMARK    2  A    between atoms: O_3  and  C_8 
REMARK    3  A    between atoms: O_4  and  C_10 
REMARK    4  A    between atoms: O_5  and  C_11 
REMARK    5  A    between atoms: O_6  and  C_12 
REMARK    6  A    between atoms: C_9  and  C_12 
ROOT
HETATM    1  O   UNL     1      44.510  43.027  43.151  1.00  0.00    -0.327 OA
HETATM    2  C   UNL     1      43.908  44.014  45.310  1.00  0.00     0.170 C 
HETATM    3  C   UNL     1      43.578  42.613  45.836  1.00  0.00     0.172 C 
HETATM    4  C   UNL     1      43.736  44.059  43.785  1.00  0.00     0.176 C 
HETATM    5  C   UNL     1      44.361  41.550  45.069  1.00  0.00     0.197 C 
HETATM    6  C   UNL     1      44.114  41.720  43.560  1.00  0.00     0.263 C 
ENDROOT
BRANCH   4   7
HETATM    7  C   UNL     1      44.204  45.399  43.208  1.00  0.00     0.170 C 
BRANCH   7   8
HETATM    8  O   UNL     1      43.104  46.310  43.183  1.00  0.00    -0.380 OA
HETATM    9  H   UNL     1      43.111  46.753  44.055  1.00  0.00     0.211 HD
ENDBRANCH   7   8
ENDBRANCH   4   7
BRANCH   2  10
HETATM   10  O   UNL     1      43.080  44.965  45.986  1.00  0.00    -0.380 OA
HETATM   11  H   UNL     1      43.358  45.023  46.919  1.00  0.00     0.211 HD
ENDBRANCH   2  10
BRANCH   6  12
HETATM   12  O   UNL     1      44.872  40.760  42.836  1.00  0.00    -0.359 OA
HETATM   13  H   UNL     1      44.582  40.839  41.908  1.00  0.00     0.213 HD
ENDBRANCH   6  12
BRANCH   3  14
HETATM   14  O   UNL     1      43.894  42.513  47.232  1.00  0.00    -0.380 OA
HETATM   15  H   UNL     1      44.264  43.382  47.490  1.00  0.00     0.211 HD
ENDBRANCH   3  14
BRANCH   5  16
HETATM   16  O   UNL     1      43.970  40.241  45.500  1.00  0.00    -0.378 OA
HETATM   17  H   UNL     1      43.261  39.970  44.882  1.00  0.00     0.211 HD
ENDBRANCH   5  16
TORSDOF 6
ENDMDL
MODEL 5
REMARK VINA RESULT:    -4.657      1.437      2.999
REMARK INTER + INTRA:          -5.821
REMARK INTER:                  -5.573
REMARK INTRA:                  -0.248
REMARK UNBOUND:                -0.211
REMARK  6 active torsions:
REMARK  status: ('A' for Active; 'I' for Inactive)
REMARK    1  A    between atoms: O_2  and  C_7 
REMARK    2  A    between atoms: O_3  and  C_8 
REMARK    3  A    between atoms: O_4  and  C_10 
REMARK    4  A    between atoms: O_5  and  C_11 
REMARK    5  A    between atoms: O_6  and  C_12 
REMARK    6  A    between atoms: C_9  and  C_12 
ROOT
HETATM    1  O   UNL     1      44.833  43.184  47.070  1.00  0.00    -0.327 OA
HETATM    2  C   UNL     1      44.799  42.176  44.838  1.00  0.00     0.170 C 
HETATM    3  C   UNL     1      43.807  43.254  44.388  1.00  0.00     0.172 C 
HETATM    4  C   UNL     1      44.680  41.948  46.352  1.00  0.00     0.176 C 
HETATM    5  C   UNL     1      43.953  44.512  45.241  1.00  0.00     0.197 C 
HETATM    6  C   UNL     1      43.832  44.140  46.729  1.00  0.00     0.263 C 
ENDROOT
BRANCH   4   7
HETATM    7  C   UNL     1      45.760  40.988  46.860  1.00  0.00     0.170 C 
BRANCH   7   8
HETATM    8  O   UNL     1      46.902  41.072  46.006  1.00  0.00    -0.380 OA
HETATM    9  H   UNL     1      47.558  40.452  46.386  1.00  0.00     0.211 HD
ENDBRANCH   7   8
ENDBRANCH   4   7
BRANCH   2  10
HETATM   10  O   UNL     1      44.557  40.986  44.081  1.00  0.00    -0.380 OA
HETATM   11  H   UNL     1      44.467  40.232  44.694  1.00  0.00     0.211 HD
ENDBRANCH   2  10
BRANCH   6  12
HETATM   12  O   UNL     1      44.008  45.299  47.533  1.00  0.00    -0.359 OA
HETATM   13  H   UNL     1      43.390  45.200  48.281  1.00  0.00     0.213 HD
ENDBRANCH   6  12
BRANCH   3  14
HETATM   14  O   UNL     1      44.024  43.593  43.011  1.00  0.00    -0.380 OA
HETATM   15  H   UNL     1      44.276  44.539  43.000  1.00  0.00     0.211 HD
ENDBRANCH   3  14
BRANCH   5  16
HETATM   16  O   UNL     1      42.955  45.475  44.878  1.00  0.00    -0.378 OA
HETATM   17  H   UNL     1      43.195  46.287  45.371  1.00  0.00     0.211 HD
ENDBRANCH   5  16
TORSDOF 6
ENDMDL
MODEL 6
REMARK VINA RESULT:    -4.513      9.368     10.615
REMARK INTER + INTRA:          -5.648
REMARK INTER:                  -5.599
REMARK INTRA:                  -0.049
REMARK UNBOUND:                -0.211
REMARK  6 active torsions:
REMARK  status: ('A' for Active; 'I' for Inactive)
REMARK    1  A    between atoms: O_2  and  C_7 
REMARK    2  A    between atoms: O_3  and  C_8 
REMARK    3  A    between atoms: O_4  and  C_10 
REMARK    4  A    between atoms: O_5  and  C_11 
REMARK    5  A    between atoms: O_6  and  C_12 
REMARK    6  A    between atoms: C_9  and  C_12 
ROOT
HETATM    1  O   UNL     1      37.545  44.249  54.141  1.00  0.00    -0.327 OA
HETATM    2  C   UNL     1      39.486  43.557  52.815  1.00  0.00     0.170 C 
HETATM    3  C   UNL     1      38.658  42.402  52.243  1.00  0.00     0.172 C 
HETATM    4  C   UNL     1      38.951  43.955  54.200  1.00  0.00     0.176 C 
HETATM    5  C   UNL     1      37.168  42.733  52.286  1.00  0.00     0.197 C 
HETATM    6  C   UNL     1      36.771  43.129  53.719  1.00  0.00     0.263 C 
ENDROOT
BRANCH   4   7
HETATM    7  C   UNL     1      39.657  45.204  54.735  1.00  0.00     0.170 C 
BRANCH   7   8
HETATM    8  O   UNL     1      38.861  46.354  54.445  1.00  0.00    -0.380 OA
HETATM    9  H   UNL     1      38.033  46.234  54.953  1.00  0.00     0.211 HD
ENDBRANCH   7   8
ENDBRANCH   4   7
BRANCH   2  10
HETATM   10  O   UNL     1      40.861  43.164  52.849  1.00  0.00    -0.380 OA
HETATM   11  H   UNL     1      41.123  43.002  53.774  1.00  0.00     0.211 HD
ENDBRANCH   2  10
BRANCH   6  12
HETATM   12  O   UNL     1      35.394  43.478  53.759  1.00  0.00    -0.359 OA
HETATM   13  H   UNL     1      34.997  43.090  52.957  1.00  0.00     0.213 HD
ENDBRANCH   6  12
BRANCH   3  14
HETATM   14  O   UNL     1      39.040  42.134  50.886  1.00  0.00    -0.380 OA
HETATM   15  H   UNL     1      38.827  42.944  50.379  1.00  0.00     0.211 HD
ENDBRANCH   3  14
BRANCH   5  16
HETATM   16  O   UNL     1      36.398  41.608  51.842  1.00  0.00    -0.378 OA
HETATM   17  H   UNL     1      37.055  40.978  51.481  1.00  0.00     0.211 HD
ENDBRANCH   5  16
TORSDOF 6
ENDMDL
MODEL 7
REMARK VINA RESULT:    -4.454      2.379      4.638
REMARK INTER + INTRA:          -5.577
REMARK INTER:                  -5.336
REMARK INTRA:                  -0.240
REMARK UNBOUND:                -0.211
REMARK  6 active torsions:
REMARK  status: ('A' for Active; 'I' for Inactive)
REMARK    1  A    between atoms: O_2  and  C_7 
REMARK    2  A    between atoms: O_3  and  C_8 
REMARK    3  A    between atoms: O_4  and  C_10 
REMARK    4  A    between atoms: O_5  and  C_11 
REMARK    5  A    between atoms: O_6  and  C_12 
REMARK    6  A    between atoms: C_9  and  C_12 
ROOT
HETATM    1  O   UNL     1      43.618  41.744  46.579  1.00  0.00    -0.327 OA
HETATM    2  C   UNL     1      45.794  42.866  46.521  1.00  0.00     0.170 C 
HETATM    3  C   UNL     1      46.468  41.534  46.867  1.00  0.00     0.172 C 
HETATM    4  C   UNL     1      44.354  42.884  47.054  1.00  0.00     0.176 C 
HETATM    5  C   UNL     1      45.602  40.359  46.419  1.00  0.00     0.197 C 
HETATM    6  C   UNL     1      44.189  40.510  47.007  1.00  0.00     0.263 C 
ENDROOT
BRANCH   4   7
HETATM    7  C   UNL     1      43.602  44.136  46.595  1.00  0.00     0.170 C 
BRANCH   7   8
HETATM    8  O   UNL     1      44.097  45.270  47.310  1.00  0.00    -0.380 OA
HETATM    9  H   UNL     1      43.850  45.118  48.245  1.00  0.00     0.211 HD
ENDBRANCH   7   8
ENDBRANCH   4   7
BRANCH   2  10
HETATM   10  O   UNL     1      46.589  43.933  47.048  1.00  0.00    -0.380 OA
HETATM   11  H   UNL     1      46.448  43.989  48.011  1.00  0.00     0.211 HD
ENDBRANCH   2  10
BRANCH   6  12
HETATM   12  O   UNL     1      43.364  39.441  46.561  1.00  0.00    -0.359 OA
HETATM   13  H   UNL     1      42.600  39.861  46.123  1.00  0.00     0.213 HD
ENDBRANCH   6  12
BRANCH   3  14
HETATM   14  O   UNL     1      47.752  41.440  46.232  1.00  0.00    -0.380 OA
HETATM   15  H   UNL     1      48.263  40.784  46.749  1.00  0.00     0.211 HD
ENDBRANCH   3  14
BRANCH   5  16
HETATM   16  O   UNL     1      46.193  39.122  46.836  1.00  0.00    -0.378 OA
HETATM   17  H   UNL     1      46.977  39.007  46.261  1.00  0.00     0.211 HD
ENDBRANCH   5  16
TORSDOF 6
ENDMDL
MODEL 8
REMARK VINA RESULT:    -4.207      1.982      2.963
REMARK INTER + INTRA:          -5.279
REMARK INTER:                  -5.034
REMARK INTRA:                  -0.246
REMARK UNBOUND:                -0.211
REMARK  6 active torsions:
REMARK  status: ('A' for Active; 'I' for Inactive)
REMARK    1  A    between atoms: O_2  and  C_7 
REMARK    2  A    between atoms: O_3  and  C_8 
REMARK    3  A    between atoms: O_4  and  C_10 
REMARK    4  A    between atoms: O_5  and  C_11 
REMARK    5  A    between atoms: O_6  and  C_12 
REMARK    6  A    between atoms: C_9  and  C_12 
ROOT
HETATM    1  O   UNL     1      46.808  42.411  46.301  1.00  0.00    -0.327 OA
HETATM    2  C   UNL     1      44.415  41.886  46.350  1.00  0.00     0.170 C 
HETATM    3  C   UNL     1      44.106  43.372  46.136  1.00  0.00     0.172 C 
HETATM    4  C   UNL     1      45.780  41.725  47.036  1.00  0.00     0.176 C 
HETATM    5  C   UNL     1      45.267  44.069  45.430  1.00  0.00     0.197 C 
HETATM    6  C   UNL     1      46.569  43.813  46.209  1.00  0.00     0.263 C 
ENDROOT
BRANCH   4   7
HETATM    7  C   UNL     1      46.190  40.252  47.127  1.00  0.00     0.170 C 
BRANCH   7   8
HETATM    8  O   UNL     1      45.533  39.650  48.244  1.00  0.00    -0.380 OA
HETATM    9  H   UNL     1      45.867  38.731  48.280  1.00  0.00     0.211 HD
ENDBRANCH   7   8
ENDBRANCH   4   7
BRANCH   2  10
HETATM   10  O   UNL     1      43.349  41.299  47.101  1.00  0.00    -0.380 OA
HETATM   11  H   UNL     1      43.030  41.944  47.759  1.00  0.00     0.211 HD
ENDBRANCH   2  10
BRANCH   6  12
HETATM   12  O   UNL     1      47.662  44.424  45.537  1.00  0.00    -0.359 OA
HETATM   13  H   UNL     1      48.451  43.912  45.793  1.00  0.00     0.213 HD
ENDBRANCH   6  12
BRANCH   3  14
HETATM   14  O   UNL     1      42.916  43.529  45.349  1.00  0.00    -0.380 OA
HETATM   15  H   UNL     1      42.371  42.735  45.520  1.00  0.00     0.211 HD
ENDBRANCH   3  14
BRANCH   5  16
HETATM   16  O   UNL     1      45.010  45.475  45.325  1.00  0.00    -0.378 OA
HETATM   17  H   UNL     1      44.777  45.621  44.385  1.00  0.00     0.211 HD
ENDBRANCH   5  16
TORSDOF 6
ENDMDL
MODEL 9
REMARK VINA RESULT:    -4.186      1.694      2.006
REMARK INTER + INTRA:          -5.254
REMARK INTER:                  -5.042
REMARK INTRA:                  -0.213
REMARK UNBOUND:                -0.211
REMARK  6 active torsions:
REMARK  status: ('A' for Active; 'I' for Inactive)
REMARK    1  A    between atoms: O_2  and  C_7 
REMARK    2  A    between atoms: O_3  and  C_8 
REMARK    3  A    between atoms: O_4  and  C_10 
REMARK    4  A    between atoms: O_5  and  C_11 
REMARK    5  A    between atoms: O_6  and  C_12 
REMARK    6  A    between atoms: C_9  and  C_12 
ROOT
HETATM    1  O   UNL     1      43.496  42.595  46.015  1.00  0.00    -0.327 OA
HETATM    2  C   UNL     1      45.644  42.298  47.155  1.00  0.00     0.170 C 
HETATM    3  C   UNL     1      46.194  43.506  46.389  1.00  0.00     0.172 C 
HETATM    4  C   UNL     1      44.512  41.636  46.354  1.00  0.00     0.176 C 
HETATM    5  C   UNL     1      45.062  44.446  45.978  1.00  0.00     0.197 C 
HETATM    6  C   UNL     1      43.995  43.654  45.203  1.00  0.00     0.263 C 
ENDROOT
BRANCH   4   7
HETATM    7  C   UNL     1      43.838  40.520  47.157  1.00  0.00     0.170 C 
BRANCH   7   8
HETATM    8  O   UNL     1      44.405  40.474  48.467  1.00  0.00    -0.380 OA
HETATM    9  H   UNL     1      45.142  39.833  48.411  1.00  0.00     0.211 HD
ENDBRANCH   7   8
ENDBRANCH   4   7
BRANCH   2  10
HETATM   10  O   UNL     1      46.722  41.399  47.430  1.00  0.00    -0.380 OA
HETATM   11  H   UNL     1      46.455  40.791  48.144  1.00  0.00     0.211 HD
ENDBRANCH   2  10
BRANCH   6  12
HETATM   12  O   UNL     1      42.917  44.513  44.852  1.00  0.00    -0.359 OA
HETATM   13  H   UNL     1      42.210  44.330  45.499  1.00  0.00     0.213 HD
ENDBRANCH   6  12
BRANCH   3  14
HETATM   14  O   UNL     1      47.133  44.229  47.198  1.00  0.00    -0.380 OA
HETATM   15  H   UNL     1      47.694  44.736  46.576  1.00  0.00     0.211 HD
ENDBRANCH   3  14
BRANCH   5  16
HETATM   16  O   UNL     1      45.576  45.518  45.178  1.00  0.00    -0.378 OA
HETATM   17  H   UNL     1      46.509  45.280  45.002  1.00  0.00     0.211 HD
ENDBRANCH   5  16
TORSDOF 6
ENDMDL
MODEL 10
REMARK VINA RESULT:    -4.073      1.633      4.322
REMARK INTER + INTRA:          -5.118
REMARK INTER:                  -4.878
REMARK INTRA:                  -0.239
REMARK UNBOUND:                -0.211
REMARK  6 active torsions:
REMARK  status: ('A' for Active; 'I' for Inactive)
REMARK    1  A    between atoms: O_2  and  C_7 
REMARK    2  A    between atoms: O_3  and  C_8 
REMARK    3  A    between atoms: O_4  and  C_10 
REMARK    4  A    between atoms: O_5  and  C_11 
REMARK    5  A    between atoms: O_6  and  C_12 
REMARK    6  A    between atoms: C_9  and  C_12 
ROOT
HETATM    1  O   UNL     1      44.882  41.653  44.378  1.00  0.00    -0.327 OA
HETATM    2  C   UNL     1      44.891  42.799  46.542  1.00  0.00     0.170 C 
HETATM    3  C   UNL     1      44.968  41.437  47.241  1.00  0.00     0.172 C 
HETATM    4  C   UNL     1      44.217  42.651  45.170  1.00  0.00     0.176 C 
HETATM    5  C   UNL     1      45.603  40.395  46.322  1.00  0.00     0.197 C 
HETATM    6  C   UNL     1      44.846  40.363  44.983  1.00  0.00     0.263 C 
ENDROOT
BRANCH   4   7
HETATM    7  C   UNL     1      44.259  43.963  44.381  1.00  0.00     0.170 C 
BRANCH   7   8
HETATM    8  O   UNL     1      43.148  44.777  44.762  1.00  0.00    -0.380 OA
HETATM    9  H   UNL     1      42.368  44.374  44.329  1.00  0.00     0.211 HD
ENDBRANCH   7   8
ENDBRANCH   4   7
BRANCH   2  10
HETATM   10  O   UNL     1      44.201  43.715  47.399  1.00  0.00    -0.380 OA
HETATM   11  H   UNL     1      44.794  44.459  47.613  1.00  0.00     0.211 HD
ENDBRANCH   2  10
BRANCH   6  12
HETATM   12  O   UNL     1      45.455  39.425  44.106  1.00  0.00    -0.359 OA
HETATM   13  H   UNL     1      46.409  39.451  44.310  1.00  0.00     0.213 HD
ENDBRANCH   6  12
BRANCH   3  14
HETATM   14  O   UNL     1      45.742  41.534  48.445  1.00  0.00    -0.380 OA
HETATM   15  H   UNL     1      45.947  42.484  48.561  1.00  0.00     0.211 HD
ENDBRANCH   3  14
BRANCH   5  16
HETATM   16  O   UNL     1      45.579  39.106  46.946  1.00  0.00    -0.378 OA
HETATM   17  H   UNL     1      44.631  38.872  47.011  1.00  0.00     0.211 HD
ENDBRANCH   5  16
TORSDOF 6
ENDMDL
