REMARK  12 active torsions:
REMARK  status: ('A' for Active; 'I' for Inactive)
REMARK    1  A    between atoms: O_1  and  C_12 
REMARK    2  A    between atoms: O_1  and  C_14 
REMARK    3  A    between atoms: O_4  and  C_13 
REMARK    4  A    between atoms: O_5  and  C_16 
REMARK    5  A    between atoms: O_6  and  C_17 
REMARK    6  A    between atoms: O_7  and  C_18 
REMARK    7  A    between atoms: O_8  and  C_19 
REMARK    8  A    between atoms: O_9  and  C_21 
REMARK    9  A    between atoms: O_10  and  C_22 
REMARK   10  A    between atoms: O_11  and  C_23 
REMARK   11  A    between atoms: C_15  and  C_22 
REMARK   12  A    between atoms: C_20  and  C_23 
ROOT
HETATM    1  O   UNL     1      -0.021  -0.855  -0.559  1.00  0.00    -0.326 OA
ENDROOT
BRANCH   1   2
HETATM    2  C   UNL     1      -1.210  -0.348   0.081  1.00  0.00     0.177 C 
HETATM    3  C   UNL     1      -1.670   0.960  -0.598  1.00  0.00     0.172 C 
HETATM    4  C   UNL     1      -3.084   1.362  -0.162  1.00  0.00     0.197 C 
HETATM    5  C   UNL     1      -4.045   0.168  -0.257  1.00  0.00     0.263 C 
HETATM    6  O   UNL     1      -3.562  -0.945   0.475  1.00  0.00    -0.327 OA
HETATM    7  C   UNL     1      -2.310  -1.416  -0.050  1.00  0.00     0.177 C 
BRANCH   3   8
HETATM    8  O   UNL     1      -0.764   2.027  -0.262  1.00  0.00    -0.380 OA
HETATM    9  H   UNL     1       0.118   1.721  -0.556  1.00  0.00     0.211 HD
ENDBRANCH   3   8
BRANCH   4  10
HETATM   10  O   UNL     1      -3.575   2.429  -0.992  1.00  0.00    -0.378 OA
HETATM   11  H   UNL     1      -4.451   2.657  -0.626  1.00  0.00     0.211 HD
ENDBRANCH   4  10
BRANCH   5  12
HETATM   12  O   UNL     1      -5.292   0.558   0.305  1.00  0.00    -0.359 OA
HETATM   13  H   UNL     1      -5.903  -0.169   0.102  1.00  0.00     0.213 HD
ENDBRANCH   5  12
BRANCH   7  14
HETATM   14  C   UNL     1      -1.944  -2.685   0.729  1.00  0.00     0.170 C 
BRANCH  14  15
HETATM   15  O   UNL     1      -2.975  -3.659   0.569  1.00  0.00    -0.380 OA
HETATM   16  H   UNL     1      -3.804  -3.212   0.828  1.00  0.00     0.211 HD
ENDBRANCH  14  15
ENDBRANCH   7  14
ENDBRANCH   1   2
BRANCH   1  17
HETATM   17  C   UNL     1       1.191  -0.555   0.146  1.00  0.00     0.266 C 
HETATM   18  O   UNL     1       1.475   0.835   0.034  1.00  0.00    -0.326 OA
HETATM   19  C   UNL     1       2.654   1.207   0.784  1.00  0.00     0.176 C 
HETATM   20  C   UNL     1       3.879   0.539   0.142  1.00  0.00     0.170 C 
HETATM   21  C   UNL     1       3.666  -0.988   0.145  1.00  0.00     0.172 C 
HETATM   22  C   UNL     1       2.327  -1.375  -0.495  1.00  0.00     0.197 C 
BRANCH  19  23
HETATM   23  C   UNL     1       2.738   2.735   0.772  1.00  0.00     0.170 C 
BRANCH  23  24
HETATM   24  O   UNL     1       1.639   3.274   1.511  1.00  0.00    -0.380 OA
HETATM   25  H   UNL     1       0.821   3.053   1.019  1.00  0.00     0.211 HD
ENDBRANCH  23  24
ENDBRANCH  19  23
BRANCH  20  26
HETATM   26  O   UNL     1       4.062   1.041  -1.189  1.00  0.00    -0.380 OA
HETATM   27  H   UNL     1       3.242   0.908  -1.693  1.00  0.00     0.211 HD
ENDBRANCH  20  26
BRANCH  21  28
HETATM   28  O   UNL     1       4.734  -1.662  -0.525  1.00  0.00    -0.380 OA
HETATM   29  H   UNL     1       4.455  -2.595  -0.605  1.00  0.00     0.211 HD
ENDBRANCH  21  28
BRANCH  22  30
HETATM   30  O   UNL     1       2.118  -2.784  -0.315  1.00  0.00    -0.378 OA
HETATM   31  H   UNL     1       1.277  -2.993  -0.766  1.00  0.00     0.211 HD
ENDBRANCH  22  30
ENDBRANCH   1  17
TORSDOF 12
