MODEL 1
REMARK VINA RESULT:    -4.493      0.000      0.000
REMARK INTER + INTRA:          -5.478
REMARK INTER:                  -5.237
REMARK INTRA:                  -0.241
REMARK UNBOUND:                -0.065
REMARK  6 active torsions:
REMARK  status: ('A' for Active; 'I' for Inactive)
REMARK    1  A    between atoms: O_2  and  C_7 
REMARK    2  A    between atoms: O_3  and  C_8 
REMARK    3  A    between atoms: O_4  and  C_10 
REMARK    4  A    between atoms: O_5  and  C_11 
REMARK    5  A    between atoms: O_6  and  C_12 
REMARK    6  A    between atoms: C_9  and  C_12 
ROOT
HETATM    1  O   UNL     1      32.564  34.274  13.662  1.00  0.00    -0.327 OA
HETATM    2  C   UNL     1      30.193  34.795  13.990  1.00  0.00     0.170 C 
HETATM    3  C   UNL     1      29.955  33.344  14.423  1.00  0.00     0.172 C 
HETATM    4  C   UNL     1      31.408  34.873  13.053  1.00  0.00     0.176 C 
HETATM    5  C   UNL     1      31.237  32.730  14.980  1.00  0.00     0.197 C 
HETATM    6  C   UNL     1      32.372  32.892  13.954  1.00  0.00     0.263 C 
ENDROOT
BRANCH   4   7
HETATM    7  C   UNL     1      31.767  36.325  12.723  1.00  0.00     0.170 C 
BRANCH   7   8
HETATM    8  O   UNL     1      31.037  37.198  13.586  1.00  0.00    -0.380 OA
HETATM    9  H   UNL     1      31.695  37.833  13.934  1.00  0.00     0.211 HD
ENDBRANCH   7   8
ENDBRANCH   4   7
BRANCH   2  10
HETATM   10  O   UNL     1      28.997  35.294  13.383  1.00  0.00    -0.380 OA
HETATM   11  H   UNL     1      28.754  34.716  12.636  1.00  0.00     0.211 HD
ENDBRANCH   2  10
BRANCH   6  12
HETATM   12  O   UNL     1      33.580  32.360  14.482  1.00  0.00    -0.359 OA
HETATM   13  H   UNL     1      33.742  31.533  13.991  1.00  0.00     0.213 HD
ENDBRANCH   6  12
BRANCH   3  14
HETATM   14  O   UNL     1      28.930  33.281  15.425  1.00  0.00    -0.380 OA
HETATM   15  H   UNL     1      28.603  34.196  15.537  1.00  0.00     0.211 HD
ENDBRANCH   3  14
BRANCH   5  16
HETATM   16  O   UNL     1      31.029  31.346  15.288  1.00  0.00    -0.378 OA
HETATM   17  H   UNL     1      30.466  31.345  16.089  1.00  0.00     0.211 HD
ENDBRANCH   5  16
TORSDOF 6
ENDMDL
MODEL 2
REMARK VINA RESULT:    -4.468     25.172     26.042
REMARK INTER + INTRA:          -5.447
REMARK INTER:                  -5.234
REMARK INTRA:                  -0.213
REMARK UNBOUND:                -0.065
REMARK  6 active torsions:
REMARK  status: ('A' for Active; 'I' for Inactive)
REMARK    1  A    between atoms: O_2  and  C_7 
REMARK    2  A    between atoms: O_3  and  C_8 
REMARK    3  A    between atoms: O_4  and  C_10 
REMARK    4  A    between atoms: O_5  and  C_11 
REMARK    5  A    between atoms: O_6  and  C_12 
REMARK    6  A    between atoms: C_9  and  C_12 
ROOT
HETATM    1  O   UNL     1      40.755  46.822  32.336  1.00  0.00    -0.327 OA
HETATM    2  C   UNL     1      41.412  48.341  34.142  1.00  0.00     0.170 C 
HETATM    3  C   UNL     1      42.799  48.469  33.502  1.00  0.00     0.172 C 
HETATM    4  C   UNL     1      40.779  46.994  33.763  1.00  0.00     0.176 C 
HETATM    5  C   UNL     1      42.729  48.191  32.003  1.00  0.00     0.197 C 
HETATM    6  C   UNL     1      42.061  46.825  31.766  1.00  0.00     0.263 C 
ENDROOT
BRANCH   4   7
HETATM    7  C   UNL     1      39.333  46.896  34.259  1.00  0.00     0.170 C 
BRANCH   7   8
HETATM    8  O   UNL     1      39.321  46.941  35.686  1.00  0.00    -0.380 OA
HETATM    9  H   UNL     1      38.401  46.734  35.947  1.00  0.00     0.211 HD
ENDBRANCH   7   8
ENDBRANCH   4   7
BRANCH   2  10
HETATM   10  O   UNL     1      41.542  48.510  35.557  1.00  0.00    -0.380 OA
HETATM   11  H   UNL     1      41.977  49.364  35.737  1.00  0.00     0.211 HD
ENDBRANCH   2  10
BRANCH   6  12
HETATM   12  O   UNL     1      41.955  46.576  30.370  1.00  0.00    -0.359 OA
HETATM   13  H   UNL     1      41.011  46.681  30.152  1.00  0.00     0.213 HD
ENDBRANCH   6  12
BRANCH   3  14
HETATM   14  O   UNL     1      43.328  49.787  33.711  1.00  0.00    -0.380 OA
HETATM   15  H   UNL     1      42.553  50.380  33.799  1.00  0.00     0.211 HD
ENDBRANCH   3  14
BRANCH   5  16
HETATM   16  O   UNL     1      44.044  48.215  31.434  1.00  0.00    -0.378 OA
HETATM   17  H   UNL     1      44.406  47.319  31.592  1.00  0.00     0.211 HD
ENDBRANCH   5  16
TORSDOF 6
ENDMDL
MODEL 3
REMARK VINA RESULT:    -4.270     25.341     26.097
REMARK INTER + INTRA:          -5.209
REMARK INTER:                  -4.968
REMARK INTRA:                  -0.241
REMARK UNBOUND:                -0.065
REMARK  6 active torsions:
REMARK  status: ('A' for Active; 'I' for Inactive)
REMARK    1  A    between atoms: O_2  and  C_7 
REMARK    2  A    between atoms: O_3  and  C_8 
REMARK    3  A    between atoms: O_4  and  C_10 
REMARK    4  A    between atoms: O_5  and  C_11 
REMARK    5  A    between atoms: O_6  and  C_12 
REMARK    6  A    between atoms: C_9  and  C_12 
ROOT
HETATM    1  O   UNL     1      39.382  45.318  33.867  1.00  0.00    -0.327 OA
HETATM    2  C   UNL     1      40.318  45.474  36.125  1.00  0.00     0.170 C 
HETATM    3  C   UNL     1      40.903  46.844  35.766  1.00  0.00     0.172 C 
HETATM    4  C   UNL     1      40.156  44.621  34.858  1.00  0.00     0.176 C 
HETATM    5  C   UNL     1      40.096  47.500  34.649  1.00  0.00     0.197 C 
HETATM    6  C   UNL     1      39.997  46.536  33.454  1.00  0.00     0.263 C 
ENDROOT
BRANCH   4   7
HETATM    7  C   UNL     1      39.433  43.305  35.158  1.00  0.00     0.170 C 
BRANCH   7   8
HETATM    8  O   UNL     1      38.880  43.362  36.474  1.00  0.00    -0.380 OA
HETATM    9  H   UNL     1      38.958  42.454  36.831  1.00  0.00     0.211 HD
ENDBRANCH   7   8
ENDBRANCH   4   7
BRANCH   2  10
HETATM   10  O   UNL     1      41.163  44.856  37.101  1.00  0.00    -0.380 OA
HETATM   11  H   UNL     1      41.297  45.474  37.842  1.00  0.00     0.211 HD
ENDBRANCH   2  10
BRANCH   6  12
HETATM   12  O   UNL     1      39.211  47.123  32.424  1.00  0.00    -0.359 OA
HETATM   13  H   UNL     1      39.763  47.094  31.620  1.00  0.00     0.213 HD
ENDBRANCH   6  12
BRANCH   3  14
HETATM   14  O   UNL     1      40.904  47.707  36.913  1.00  0.00    -0.380 OA
HETATM   15  H   UNL     1      40.365  48.486  36.667  1.00  0.00     0.211 HD
ENDBRANCH   3  14
BRANCH   5  16
HETATM   16  O   UNL     1      40.710  48.733  34.253  1.00  0.00    -0.378 OA
HETATM   17  H   UNL     1      40.629  48.756  33.277  1.00  0.00     0.211 HD
ENDBRANCH   5  16
TORSDOF 6
ENDMDL
MODEL 4
REMARK VINA RESULT:    -4.228     25.276     25.968
REMARK INTER + INTRA:          -5.159
REMARK INTER:                  -5.093
REMARK INTRA:                  -0.065
REMARK UNBOUND:                -0.065
REMARK  6 active torsions:
REMARK  status: ('A' for Active; 'I' for Inactive)
REMARK    1  A    between atoms: O_2  and  C_7 
REMARK    2  A    between atoms: O_3  and  C_8 
REMARK    3  A    between atoms: O_4  and  C_10 
REMARK    4  A    between atoms: O_5  and  C_11 
REMARK    5  A    between atoms: O_6  and  C_12 
REMARK    6  A    between atoms: C_9  and  C_12 
ROOT
HETATM    1  O   UNL     1      42.453  48.184  34.285  1.00  0.00    -0.327 OA
HETATM    2  C   UNL     1      41.097  47.450  32.382  1.00  0.00     0.170 C 
HETATM    3  C   UNL     1      40.105  46.812  33.361  1.00  0.00     0.172 C 
HETATM    4  C   UNL     1      42.495  47.513  33.015  1.00  0.00     0.176 C 
HETATM    5  C   UNL     1      40.165  47.507  34.719  1.00  0.00     0.197 C 
HETATM    6  C   UNL     1      41.617  47.516  35.227  1.00  0.00     0.263 C 
ENDROOT
BRANCH   4   7
HETATM    7  C   UNL     1      43.478  48.281  32.126  1.00  0.00     0.170 C 
BRANCH   7   8
HETATM    8  O   UNL     1      43.020  49.625  31.972  1.00  0.00    -0.380 OA
HETATM    9  H   UNL     1      42.139  49.556  31.551  1.00  0.00     0.211 HD
ENDBRANCH   7   8
ENDBRANCH   4   7
BRANCH   2  10
HETATM   10  O   UNL     1      41.079  46.705  31.161  1.00  0.00    -0.380 OA
HETATM   11  H   UNL     1      40.154  46.512  30.920  1.00  0.00     0.211 HD
ENDBRANCH   2  10
BRANCH   6  12
HETATM   12  O   UNL     1      41.689  48.198  36.473  1.00  0.00    -0.359 OA
HETATM   13  H   UNL     1      41.508  49.135  36.273  1.00  0.00     0.213 HD
ENDBRANCH   6  12
BRANCH   3  14
HETATM   14  O   UNL     1      38.767  46.900  32.848  1.00  0.00    -0.380 OA
HETATM   15  H   UNL     1      38.231  47.308  33.558  1.00  0.00     0.211 HD
ENDBRANCH   3  14
BRANCH   5  16
HETATM   16  O   UNL     1      39.307  46.841  35.654  1.00  0.00    -0.378 OA
HETATM   17  H   UNL     1      39.144  47.498  36.362  1.00  0.00     0.211 HD
ENDBRANCH   5  16
TORSDOF 6
ENDMDL
MODEL 5
REMARK VINA RESULT:    -4.149     25.145     25.867
REMARK INTER + INTRA:          -5.063
REMARK INTER:                  -4.822
REMARK INTRA:                  -0.241
REMARK UNBOUND:                -0.065
REMARK  6 active torsions:
REMARK  status: ('A' for Active; 'I' for Inactive)
REMARK    1  A    between atoms: O_2  and  C_7 
REMARK    2  A    between atoms: O_3  and  C_8 
REMARK    3  A    between atoms: O_4  and  C_10 
REMARK    4  A    between atoms: O_5  and  C_11 
REMARK    5  A    between atoms: O_6  and  C_12 
REMARK    6  A    between atoms: C_9  and  C_12 
ROOT
HETATM    1  O   UNL     1      40.924  45.635  36.175  1.00  0.00    -0.327 OA
HETATM    2  C   UNL     1      39.967  45.054  33.996  1.00  0.00     0.170 C 
HETATM    3  C   UNL     1      39.864  46.547  33.666  1.00  0.00     0.172 C 
HETATM    4  C   UNL     1      39.919  44.846  35.517  1.00  0.00     0.176 C 
HETATM    5  C   UNL     1      40.896  47.348  34.458  1.00  0.00     0.197 C 
HETATM    6  C   UNL     1      40.748  47.033  35.957  1.00  0.00     0.263 C 
ENDROOT
BRANCH   4   7
HETATM    7  C   UNL     1      40.172  43.382  35.889  1.00  0.00     0.170 C 
BRANCH   7   8
HETATM    8  O   UNL     1      38.945  42.656  35.802  1.00  0.00    -0.380 OA
HETATM    9  H   UNL     1      39.191  41.713  35.892  1.00  0.00     0.211 HD
ENDBRANCH   7   8
ENDBRANCH   4   7
BRANCH   2  10
HETATM   10  O   UNL     1      38.920  44.360  33.311  1.00  0.00    -0.380 OA
HETATM   11  H   UNL     1      39.018  44.504  32.352  1.00  0.00     0.211 HD
ENDBRANCH   2  10
BRANCH   6  12
HETATM   12  O   UNL     1      41.732  47.742  36.698  1.00  0.00    -0.359 OA
HETATM   13  H   UNL     1      42.344  47.065  37.044  1.00  0.00     0.213 HD
ENDBRANCH   6  12
BRANCH   3  14
HETATM   14  O   UNL     1      40.076  46.768  32.264  1.00  0.00    -0.380 OA
HETATM   15  H   UNL     1      39.277  47.229  31.938  1.00  0.00     0.211 HD
ENDBRANCH   3  14
BRANCH   5  16
HETATM   16  O   UNL     1      40.725  48.750  34.218  1.00  0.00    -0.378 OA
HETATM   17  H   UNL     1      41.522  49.021  33.718  1.00  0.00     0.211 HD
ENDBRANCH   5  16
TORSDOF 6
ENDMDL
MODEL 6
REMARK VINA RESULT:    -4.075     25.735     26.447
REMARK INTER + INTRA:          -4.974
REMARK INTER:                  -4.722
REMARK INTRA:                  -0.251
REMARK UNBOUND:                -0.065
REMARK  6 active torsions:
REMARK  status: ('A' for Active; 'I' for Inactive)
REMARK    1  A    between atoms: O_2  and  C_7 
REMARK    2  A    between atoms: O_3  and  C_8 
REMARK    3  A    between atoms: O_4  and  C_10 
REMARK    4  A    between atoms: O_5  and  C_11 
REMARK    5  A    between atoms: O_6  and  C_12 
REMARK    6  A    between atoms: C_9  and  C_12 
ROOT
HETATM    1  O   UNL     1      42.655  46.167  34.819  1.00  0.00    -0.327 OA
HETATM    2  C   UNL     1      40.268  46.566  35.196  1.00  0.00     0.170 C 
HETATM    3  C   UNL     1      40.326  47.728  34.198  1.00  0.00     0.172 C 
HETATM    4  C   UNL     1      41.650  46.347  35.830  1.00  0.00     0.176 C 
HETATM    5  C   UNL     1      41.465  47.528  33.202  1.00  0.00     0.197 C 
HETATM    6  C   UNL     1      42.781  47.303  33.967  1.00  0.00     0.263 C 
ENDROOT
BRANCH   4   7
HETATM    7  C   UNL     1      41.667  45.100  36.718  1.00  0.00     0.170 C 
BRANCH   7   8
HETATM    8  O   UNL     1      40.524  44.296  36.421  1.00  0.00    -0.380 OA
HETATM    9  H   UNL     1      39.765  44.759  36.829  1.00  0.00     0.211 HD
ENDBRANCH   7   8
ENDBRANCH   4   7
BRANCH   2  10
HETATM   10  O   UNL     1      39.255  46.845  36.167  1.00  0.00    -0.380 OA
HETATM   11  H   UNL     1      39.403  47.737  36.534  1.00  0.00     0.211 HD
ENDBRANCH   2  10
BRANCH   6  12
HETATM   12  O   UNL     1      43.841  47.075  33.047  1.00  0.00    -0.359 OA
HETATM   13  H   UNL     1      43.454  47.193  32.160  1.00  0.00     0.213 HD
ENDBRANCH   6  12
BRANCH   3  14
HETATM   14  O   UNL     1      39.088  47.833  33.479  1.00  0.00    -0.380 OA
HETATM   15  H   UNL     1      38.514  48.421  34.012  1.00  0.00     0.211 HD
ENDBRANCH   3  14
BRANCH   5  16
HETATM   16  O   UNL     1      41.572  48.666  32.337  1.00  0.00    -0.378 OA
HETATM   17  H   UNL     1      40.837  48.569  31.698  1.00  0.00     0.211 HD
ENDBRANCH   5  16
TORSDOF 6
ENDMDL
MODEL 7
REMARK VINA RESULT:    -4.063     17.357     19.233
REMARK INTER + INTRA:          -4.960
REMARK INTER:                  -4.713
REMARK INTRA:                  -0.246
REMARK UNBOUND:                -0.065
REMARK  6 active torsions:
REMARK  status: ('A' for Active; 'I' for Inactive)
REMARK    1  A    between atoms: O_2  and  C_7 
REMARK    2  A    between atoms: O_3  and  C_8 
REMARK    3  A    between atoms: O_4  and  C_10 
REMARK    4  A    between atoms: O_5  and  C_11 
REMARK    5  A    between atoms: O_6  and  C_12 
REMARK    6  A    between atoms: C_9  and  C_12 
ROOT
HETATM    1  O   UNL     1      17.808  31.637  28.451  1.00  0.00    -0.327 OA
HETATM    2  C   UNL     1      20.228  31.401  28.152  1.00  0.00     0.170 C 
HETATM    3  C   UNL     1      20.446  32.352  29.334  1.00  0.00     0.172 C 
HETATM    4  C   UNL     1      18.873  31.689  27.487  1.00  0.00     0.176 C 
HETATM    5  C   UNL     1      19.247  32.322  30.279  1.00  0.00     0.197 C 
HETATM    6  C   UNL     1      17.961  32.606  29.484  1.00  0.00     0.263 C 
ENDROOT
BRANCH   4   7
HETATM    7  C   UNL     1      18.555  30.659  26.399  1.00  0.00     0.170 C 
BRANCH   7   8
HETATM    8  O   UNL     1      19.307  30.968  25.225  1.00  0.00    -0.380 OA
HETATM    9  H   UNL     1      18.744  30.693  24.473  1.00  0.00     0.211 HD
ENDBRANCH   7   8
ENDBRANCH   4   7
BRANCH   2  10
HETATM   10  O   UNL     1      21.326  31.538  27.245  1.00  0.00    -0.380 OA
HETATM   11  H   UNL     1      20.981  31.594  26.334  1.00  0.00     0.211 HD
ENDBRANCH   2  10
BRANCH   6  12
HETATM   12  O   UNL     1      16.834  32.540  30.349  1.00  0.00    -0.359 OA
HETATM   13  H   UNL     1      16.072  32.332  29.777  1.00  0.00     0.213 HD
ENDBRANCH   6  12
BRANCH   3  14
HETATM   14  O   UNL     1      21.626  31.985  30.063  1.00  0.00    -0.380 OA
HETATM   15  H   UNL     1      21.330  31.376  30.770  1.00  0.00     0.211 HD
ENDBRANCH   3  14
BRANCH   5  16
HETATM   16  O   UNL     1      19.417  33.286  31.326  1.00  0.00    -0.378 OA
HETATM   17  H   UNL     1      19.125  34.137  30.938  1.00  0.00     0.211 HD
ENDBRANCH   5  16
TORSDOF 6
ENDMDL
MODEL 8
REMARK VINA RESULT:    -4.047     24.627     24.988
REMARK INTER + INTRA:          -4.941
REMARK INTER:                  -4.701
REMARK INTRA:                  -0.240
REMARK UNBOUND:                -0.065
REMARK  6 active torsions:
REMARK  status: ('A' for Active; 'I' for Inactive)
REMARK    1  A    between atoms: O_2  and  C_7 
REMARK    2  A    between atoms: O_3  and  C_8 
REMARK    3  A    between atoms: O_4  and  C_10 
REMARK    4  A    between atoms: O_5  and  C_11 
REMARK    5  A    between atoms: O_6  and  C_12 
REMARK    6  A    between atoms: C_9  and  C_12 
ROOT
HETATM    1  O   UNL     1      42.660  45.387  33.325  1.00  0.00    -0.327 OA
HETATM    2  C   UNL     1      41.239  47.366  33.071  1.00  0.00     0.170 C 
HETATM    3  C   UNL     1      40.030  46.528  33.502  1.00  0.00     0.172 C 
HETATM    4  C   UNL     1      42.308  46.463  32.439  1.00  0.00     0.176 C 
HETATM    5  C   UNL     1      40.471  45.351  34.368  1.00  0.00     0.197 C 
HETATM    6  C   UNL     1      41.551  44.544  33.627  1.00  0.00     0.263 C 
ENDROOT
BRANCH   4   7
HETATM    7  C   UNL     1      43.591  47.242  32.135  1.00  0.00     0.170 C 
BRANCH   7   8
HETATM    8  O   UNL     1      43.366  48.099  31.014  1.00  0.00    -0.380 OA
HETATM    9  H   UNL     1      42.879  48.871  31.368  1.00  0.00     0.211 HD
ENDBRANCH   7   8
ENDBRANCH   4   7
BRANCH   2  10
HETATM   10  O   UNL     1      40.791  48.394  32.181  1.00  0.00    -0.380 OA
HETATM   11  H   UNL     1      40.915  48.095  31.261  1.00  0.00     0.211 HD
ENDBRANCH   2  10
BRANCH   6  12
HETATM   12  O   UNL     1      41.997  43.470  34.443  1.00  0.00    -0.359 OA
HETATM   13  H   UNL     1      41.632  43.641  35.331  1.00  0.00     0.213 HD
ENDBRANCH   6  12
BRANCH   3  14
HETATM   14  O   UNL     1      39.100  47.332  34.242  1.00  0.00    -0.380 OA
HETATM   15  H   UNL     1      39.435  47.360  35.161  1.00  0.00     0.211 HD
ENDBRANCH   3  14
BRANCH   5  16
HETATM   16  O   UNL     1      39.347  44.519  34.683  1.00  0.00    -0.378 OA
HETATM   17  H   UNL     1      38.885  44.384  33.830  1.00  0.00     0.211 HD
ENDBRANCH   5  16
TORSDOF 6
ENDMDL
MODEL 9
REMARK VINA RESULT:    -3.844     24.099     24.829
REMARK INTER + INTRA:          -4.695
REMARK INTER:                  -4.449
REMARK INTRA:                  -0.246
REMARK UNBOUND:                -0.065
REMARK  6 active torsions:
REMARK  status: ('A' for Active; 'I' for Inactive)
REMARK    1  A    between atoms: O_2  and  C_7 
REMARK    2  A    between atoms: O_3  and  C_8 
REMARK    3  A    between atoms: O_4  and  C_10 
REMARK    4  A    between atoms: O_5  and  C_11 
REMARK    5  A    between atoms: O_6  and  C_12 
REMARK    6  A    between atoms: C_9  and  C_12 
ROOT
HETATM    1  O   UNL     1      41.580  44.846  33.894  1.00  0.00    -0.327 OA
HETATM    2  C   UNL     1      42.159  46.517  32.199  1.00  0.00     0.170 C 
HETATM    3  C   UNL     1      40.785  47.166  32.399  1.00  0.00     0.172 C 
HETATM    4  C   UNL     1      42.097  45.027  32.565  1.00  0.00     0.176 C 
HETATM    5  C   UNL     1      40.245  46.869  33.796  1.00  0.00     0.197 C 
HETATM    6  C   UNL     1      40.254  45.349  34.036  1.00  0.00     0.263 C 
ENDROOT
BRANCH   4   7
HETATM    7  C   UNL     1      43.485  44.382  32.524  1.00  0.00     0.170 C 
BRANCH   7   8
HETATM    8  O   UNL     1      43.850  44.138  31.164  1.00  0.00    -0.380 OA
HETATM    9  H   UNL     1      43.671  44.976  30.691  1.00  0.00     0.211 HD
ENDBRANCH   7   8
ENDBRANCH   4   7
BRANCH   2  10
HETATM   10  O   UNL     1      42.578  46.735  30.849  1.00  0.00    -0.380 OA
HETATM   11  H   UNL     1      41.795  46.719  30.266  1.00  0.00     0.211 HD
ENDBRANCH   2  10
BRANCH   6  12
HETATM   12  O   UNL     1      39.791  45.066  35.350  1.00  0.00    -0.359 OA
HETATM   13  H   UNL     1      40.218  45.724  35.930  1.00  0.00     0.213 HD
ENDBRANCH   6  12
BRANCH   3  14
HETATM   14  O   UNL     1      40.870  48.587  32.221  1.00  0.00    -0.380 OA
HETATM   15  H   UNL     1      41.816  48.785  32.066  1.00  0.00     0.211 HD
ENDBRANCH   3  14
BRANCH   5  16
HETATM   16  O   UNL     1      38.919  47.394  33.936  1.00  0.00    -0.378 OA
HETATM   17  H   UNL     1      38.747  47.394  34.900  1.00  0.00     0.211 HD
ENDBRANCH   5  16
TORSDOF 6
ENDMDL
MODEL 10
REMARK VINA RESULT:    -3.764     26.406     27.171
REMARK INTER + INTRA:          -4.599
REMARK INTER:                  -4.356
REMARK INTRA:                  -0.244
REMARK UNBOUND:                -0.065
REMARK  6 active torsions:
REMARK  status: ('A' for Active; 'I' for Inactive)
REMARK    1  A    between atoms: O_2  and  C_7 
REMARK    2  A    between atoms: O_3  and  C_8 
REMARK    3  A    between atoms: O_4  and  C_10 
REMARK    4  A    between atoms: O_5  and  C_11 
REMARK    5  A    between atoms: O_6  and  C_12 
REMARK    6  A    between atoms: C_9  and  C_12 
ROOT
HETATM    1  O   UNL     1      41.477  47.450  36.222  1.00  0.00    -0.327 OA
HETATM    2  C   UNL     1      42.657  48.201  34.211  1.00  0.00     0.170 C 
HETATM    3  C   UNL     1      41.469  47.734  33.364  1.00  0.00     0.172 C 
HETATM    4  C   UNL     1      42.727  47.390  35.514  1.00  0.00     0.176 C 
HETATM    5  C   UNL     1      40.184  47.734  34.190  1.00  0.00     0.197 C 
HETATM    6  C   UNL     1      40.397  46.905  35.468  1.00  0.00     0.263 C 
ENDROOT
BRANCH   4   7
HETATM    7  C   UNL     1      43.809  47.931  36.453  1.00  0.00     0.170 C 
BRANCH   7   8
HETATM    8  O   UNL     1      45.094  47.546  35.961  1.00  0.00    -0.380 OA
HETATM    9  H   UNL     1      45.726  47.777  36.672  1.00  0.00     0.211 HD
ENDBRANCH   7   8
ENDBRANCH   4   7
BRANCH   2  10
HETATM   10  O   UNL     1      43.851  48.089  33.429  1.00  0.00    -0.380 OA
HETATM   11  H   UNL     1      43.820  48.743  32.707  1.00  0.00     0.211 HD
ENDBRANCH   2  10
BRANCH   6  12
HETATM   12  O   UNL     1      39.219  46.933  36.264  1.00  0.00    -0.359 OA
HETATM   13  H   UNL     1      38.777  46.076  36.114  1.00  0.00     0.213 HD
ENDBRANCH   6  12
BRANCH   3  14
HETATM   14  O   UNL     1      41.295  48.592  32.227  1.00  0.00    -0.380 OA
HETATM   15  H   UNL     1      40.342  48.815  32.198  1.00  0.00     0.211 HD
ENDBRANCH   3  14
BRANCH   5  16
HETATM   16  O   UNL     1      39.100  47.202  33.418  1.00  0.00    -0.378 OA
HETATM   17  H   UNL     1      39.207  47.592  32.526  1.00  0.00     0.211 HD
ENDBRANCH   5  16
TORSDOF 6
ENDMDL
