MODEL 1
REMARK VINA RESULT:    -4.231      0.000      0.000
REMARK INTER + INTRA:          -5.314
REMARK INTER:                  -5.078
REMARK INTRA:                  -0.236
REMARK UNBOUND:                -0.218
REMARK  6 active torsions:
REMARK  status: ('A' for Active; 'I' for Inactive)
REMARK    1  A    between atoms: O_2  and  C_7 
REMARK    2  A    between atoms: O_3  and  C_8 
REMARK    3  A    between atoms: O_4  and  C_10 
REMARK    4  A    between atoms: O_5  and  C_11 
REMARK    5  A    between atoms: O_6  and  C_12 
REMARK    6  A    between atoms: C_9  and  C_12 
ROOT
HETATM    1  O   UNL     1      32.649  34.333  13.630  1.00  0.00    -0.327 OA
HETATM    2  C   UNL     1      30.314  34.930  14.065  1.00  0.00     0.170 C 
HETATM    3  C   UNL     1      30.060  33.498  14.550  1.00  0.00     0.172 C 
HETATM    4  C   UNL     1      31.480  34.948  13.065  1.00  0.00     0.176 C 
HETATM    5  C   UNL     1      31.352  32.863  15.058  1.00  0.00     0.197 C 
HETATM    6  C   UNL     1      32.435  32.965  13.970  1.00  0.00     0.263 C 
ENDROOT
BRANCH   4   7
HETATM    7  C   UNL     1      31.860  36.380  12.676  1.00  0.00     0.170 C 
BRANCH   7   8
HETATM    8  O   UNL     1      31.173  37.297  13.529  1.00  0.00    -0.380 OA
HETATM    9  H   UNL     1      30.745  36.746  14.216  1.00  0.00     0.211 HD
ENDBRANCH   7   8
ENDBRANCH   4   7
BRANCH   2  10
HETATM   10  O   UNL     1      29.102  35.447  13.507  1.00  0.00    -0.380 OA
HETATM   11  H   UNL     1      28.486  35.664  14.232  1.00  0.00     0.211 HD
ENDBRANCH   2  10
BRANCH   6  12
HETATM   12  O   UNL     1      33.655  32.413  14.449  1.00  0.00    -0.359 OA
HETATM   13  H   UNL     1      33.913  31.735  13.797  1.00  0.00     0.213 HD
ENDBRANCH   6  12
BRANCH   3  14
HETATM   14  O   UNL     1      29.088  33.491  15.606  1.00  0.00    -0.380 OA
HETATM   15  H   UNL     1      28.459  32.772  15.391  1.00  0.00     0.211 HD
ENDBRANCH   3  14
BRANCH   5  16
HETATM   16  O   UNL     1      31.124  31.494  15.415  1.00  0.00    -0.378 OA
HETATM   17  H   UNL     1      31.187  30.998  14.573  1.00  0.00     0.211 HD
ENDBRANCH   5  16
TORSDOF 6
ENDMDL
MODEL 2
REMARK VINA RESULT:    -4.146     25.178     25.780
REMARK INTER + INTRA:          -5.212
REMARK INTER:                  -4.995
REMARK INTRA:                  -0.218
REMARK UNBOUND:                -0.218
REMARK  6 active torsions:
REMARK  status: ('A' for Active; 'I' for Inactive)
REMARK    1  A    between atoms: O_2  and  C_7 
REMARK    2  A    between atoms: O_3  and  C_8 
REMARK    3  A    between atoms: O_4  and  C_10 
REMARK    4  A    between atoms: O_5  and  C_11 
REMARK    5  A    between atoms: O_6  and  C_12 
REMARK    6  A    between atoms: C_9  and  C_12 
ROOT
HETATM    1  O   UNL     1      42.625  47.809  34.468  1.00  0.00    -0.327 OA
HETATM    2  C   UNL     1      41.367  47.354  32.416  1.00  0.00     0.170 C 
HETATM    3  C   UNL     1      40.189  46.871  33.270  1.00  0.00     0.172 C 
HETATM    4  C   UNL     1      42.685  47.168  33.183  1.00  0.00     0.176 C 
HETATM    5  C   UNL     1      40.224  47.516  34.653  1.00  0.00     0.197 C 
HETATM    6  C   UNL     1      41.599  47.270  35.298  1.00  0.00     0.263 C 
ENDROOT
BRANCH   4   7
HETATM    7  C   UNL     1      43.865  47.779  32.422  1.00  0.00     0.170 C 
BRANCH   7   8
HETATM    8  O   UNL     1      43.378  48.451  31.259  1.00  0.00    -0.380 OA
HETATM    9  H   UNL     1      42.403  48.452  31.347  1.00  0.00     0.211 HD
ENDBRANCH   7   8
ENDBRANCH   4   7
BRANCH   2  10
HETATM   10  O   UNL     1      41.350  46.650  31.171  1.00  0.00    -0.380 OA
HETATM   11  H   UNL     1      42.258  46.369  30.952  1.00  0.00     0.211 HD
ENDBRANCH   2  10
BRANCH   6  12
HETATM   12  O   UNL     1      41.656  47.903  36.570  1.00  0.00    -0.359 OA
HETATM   13  H   UNL     1      41.839  47.192  37.213  1.00  0.00     0.213 HD
ENDBRANCH   6  12
BRANCH   3  14
HETATM   14  O   UNL     1      38.943  47.193  32.635  1.00  0.00    -0.380 OA
HETATM   15  H   UNL     1      38.357  47.531  33.342  1.00  0.00     0.211 HD
ENDBRANCH   3  14
BRANCH   5  16
HETATM   16  O   UNL     1      39.179  46.983  35.475  1.00  0.00    -0.378 OA
HETATM   17  H   UNL     1      39.563  46.182  35.888  1.00  0.00     0.211 HD
ENDBRANCH   5  16
TORSDOF 6
ENDMDL
MODEL 3
REMARK VINA RESULT:    -3.983     25.710     26.361
REMARK INTER + INTRA:          -5.015
REMARK INTER:                  -4.762
REMARK INTRA:                  -0.253
REMARK UNBOUND:                -0.218
REMARK  6 active torsions:
REMARK  status: ('A' for Active; 'I' for Inactive)
REMARK    1  A    between atoms: O_2  and  C_7 
REMARK    2  A    between atoms: O_3  and  C_8 
REMARK    3  A    between atoms: O_4  and  C_10 
REMARK    4  A    between atoms: O_5  and  C_11 
REMARK    5  A    between atoms: O_6  and  C_12 
REMARK    6  A    between atoms: C_9  and  C_12 
ROOT
HETATM    1  O   UNL     1      42.629  46.236  34.863  1.00  0.00    -0.327 OA
HETATM    2  C   UNL     1      40.247  46.588  35.310  1.00  0.00     0.170 C 
HETATM    3  C   UNL     1      40.240  47.718  34.275  1.00  0.00     0.172 C 
HETATM    4  C   UNL     1      41.654  46.423  35.903  1.00  0.00     0.176 C 
HETATM    5  C   UNL     1      41.350  47.515  33.247  1.00  0.00     0.197 C 
HETATM    6  C   UNL     1      42.696  47.347  33.973  1.00  0.00     0.263 C 
ENDROOT
BRANCH   4   7
HETATM    7  C   UNL     1      41.733  45.205  36.828  1.00  0.00     0.170 C 
BRANCH   7   8
HETATM    8  O   UNL     1      40.719  44.269  36.460  1.00  0.00    -0.380 OA
HETATM    9  H   UNL     1      40.438  44.527  35.559  1.00  0.00     0.211 HD
ENDBRANCH   7   8
ENDBRANCH   4   7
BRANCH   2  10
HETATM   10  O   UNL     1      39.260  46.872  36.307  1.00  0.00    -0.380 OA
HETATM   11  H   UNL     1      38.879  46.033  36.626  1.00  0.00     0.211 HD
ENDBRANCH   2  10
BRANCH   6  12
HETATM   12  O   UNL     1      43.731  47.116  33.025  1.00  0.00    -0.359 OA
HETATM   13  H   UNL     1      44.213  47.961  32.947  1.00  0.00     0.213 HD
ENDBRANCH   6  12
BRANCH   3  14
HETATM   14  O   UNL     1      38.976  47.770  33.597  1.00  0.00    -0.380 OA
HETATM   15  H   UNL     1      38.609  48.660  33.774  1.00  0.00     0.211 HD
ENDBRANCH   3  14
BRANCH   5  16
HETATM   16  O   UNL     1      41.399  48.627  32.345  1.00  0.00    -0.378 OA
HETATM   17  H   UNL     1      41.719  48.254  31.498  1.00  0.00     0.211 HD
ENDBRANCH   5  16
TORSDOF 6
ENDMDL
MODEL 4
REMARK VINA RESULT:    -3.967     25.081     25.797
REMARK INTER + INTRA:          -4.997
REMARK INTER:                  -4.746
REMARK INTRA:                  -0.251
REMARK UNBOUND:                -0.218
REMARK  6 active torsions:
REMARK  status: ('A' for Active; 'I' for Inactive)
REMARK    1  A    between atoms: O_2  and  C_7 
REMARK    2  A    between atoms: O_3  and  C_8 
REMARK    3  A    between atoms: O_4  and  C_10 
REMARK    4  A    between atoms: O_5  and  C_11 
REMARK    5  A    between atoms: O_6  and  C_12 
REMARK    6  A    between atoms: C_9  and  C_12 
ROOT
HETATM    1  O   UNL     1      39.233  45.344  33.736  1.00  0.00    -0.327 OA
HETATM    2  C   UNL     1      40.420  45.399  35.877  1.00  0.00     0.170 C 
HETATM    3  C   UNL     1      40.993  46.770  35.501  1.00  0.00     0.172 C 
HETATM    4  C   UNL     1      40.097  44.596  34.608  1.00  0.00     0.176 C 
HETATM    5  C   UNL     1      40.080  47.482  34.506  1.00  0.00     0.197 C 
HETATM    6  C   UNL     1      39.824  46.565  33.298  1.00  0.00     0.263 C 
ENDROOT
BRANCH   4   7
HETATM    7  C   UNL     1      39.382  43.284  34.943  1.00  0.00     0.170 C 
BRANCH   7   8
HETATM    8  O   UNL     1      38.906  43.337  36.289  1.00  0.00    -0.380 OA
HETATM    9  H   UNL     1      39.704  43.273  36.852  1.00  0.00     0.211 HD
ENDBRANCH   7   8
ENDBRANCH   4   7
BRANCH   2  10
HETATM   10  O   UNL     1      41.355  44.729  36.729  1.00  0.00    -0.380 OA
HETATM   11  H   UNL     1      40.969  44.644  37.620  1.00  0.00     0.211 HD
ENDBRANCH   2  10
BRANCH   6  12
HETATM   12  O   UNL     1      38.942  47.203  32.385  1.00  0.00    -0.359 OA
HETATM   13  H   UNL     1      38.836  48.116  32.712  1.00  0.00     0.213 HD
ENDBRANCH   6  12
BRANCH   3  14
HETATM   14  O   UNL     1      41.142  47.589  36.670  1.00  0.00    -0.380 OA
HETATM   15  H   UNL     1      40.524  47.227  37.337  1.00  0.00     0.211 HD
ENDBRANCH   3  14
BRANCH   5  16
HETATM   16  O   UNL     1      40.673  48.717  34.086  1.00  0.00    -0.378 OA
HETATM   17  H   UNL     1      39.964  49.385  34.183  1.00  0.00     0.211 HD
ENDBRANCH   5  16
TORSDOF 6
ENDMDL
MODEL 5
REMARK VINA RESULT:    -3.965     17.494     19.316
REMARK INTER + INTRA:          -4.993
REMARK INTER:                  -4.749
REMARK INTRA:                  -0.245
REMARK UNBOUND:                -0.218
REMARK  6 active torsions:
REMARK  status: ('A' for Active; 'I' for Inactive)
REMARK    1  A    between atoms: O_2  and  C_7 
REMARK    2  A    between atoms: O_3  and  C_8 
REMARK    3  A    between atoms: O_4  and  C_10 
REMARK    4  A    between atoms: O_5  and  C_11 
REMARK    5  A    between atoms: O_6  and  C_12 
REMARK    6  A    between atoms: C_9  and  C_12 
ROOT
HETATM    1  O   UNL     1      17.781  31.697  28.517  1.00  0.00    -0.327 OA
HETATM    2  C   UNL     1      20.191  31.399  28.201  1.00  0.00     0.170 C 
HETATM    3  C   UNL     1      20.442  32.359  29.369  1.00  0.00     0.172 C 
HETATM    4  C   UNL     1      18.839  31.711  27.544  1.00  0.00     0.176 C 
HETATM    5  C   UNL     1      19.251  32.371  30.324  1.00  0.00     0.197 C 
HETATM    6  C   UNL     1      17.965  32.676  29.536  1.00  0.00     0.263 C 
ENDROOT
BRANCH   4   7
HETATM    7  C   UNL     1      18.486  30.676  26.471  1.00  0.00     0.170 C 
BRANCH   7   8
HETATM    8  O   UNL     1      19.275  30.919  25.306  1.00  0.00    -0.380 OA
HETATM    9  H   UNL     1      18.796  31.611  24.805  1.00  0.00     0.211 HD
ENDBRANCH   7   8
ENDBRANCH   4   7
BRANCH   2  10
HETATM   10  O   UNL     1      21.285  31.497  27.284  1.00  0.00    -0.380 OA
HETATM   11  H   UNL     1      21.456  30.618  26.897  1.00  0.00     0.211 HD
ENDBRANCH   2  10
BRANCH   6  12
HETATM   12  O   UNL     1      16.845  32.648  30.411  1.00  0.00    -0.359 OA
HETATM   13  H   UNL     1      16.301  31.891  30.122  1.00  0.00     0.213 HD
ENDBRANCH   6  12
BRANCH   3  14
HETATM   14  O   UNL     1      21.619  31.973  30.093  1.00  0.00    -0.380 OA
HETATM   15  H   UNL     1      22.276  32.683  29.944  1.00  0.00     0.211 HD
ENDBRANCH   3  14
BRANCH   5  16
HETATM   16  O   UNL     1      19.453  33.344  31.356  1.00  0.00    -0.378 OA
HETATM   17  H   UNL     1      19.356  34.211  30.912  1.00  0.00     0.211 HD
ENDBRANCH   5  16
TORSDOF 6
ENDMDL
MODEL 6
REMARK VINA RESULT:    -3.933     24.427     24.861
REMARK INTER + INTRA:          -4.955
REMARK INTER:                  -4.712
REMARK INTRA:                  -0.244
REMARK UNBOUND:                -0.218
REMARK  6 active torsions:
REMARK  status: ('A' for Active; 'I' for Inactive)
REMARK    1  A    between atoms: O_2  and  C_7 
REMARK    2  A    between atoms: O_3  and  C_8 
REMARK    3  A    between atoms: O_4  and  C_10 
REMARK    4  A    between atoms: O_5  and  C_11 
REMARK    5  A    between atoms: O_6  and  C_12 
REMARK    6  A    between atoms: C_9  and  C_12 
ROOT
HETATM    1  O   UNL     1      42.763  45.432  33.312  1.00  0.00    -0.327 OA
HETATM    2  C   UNL     1      41.259  47.355  33.110  1.00  0.00     0.170 C 
HETATM    3  C   UNL     1      40.081  46.445  33.474  1.00  0.00     0.172 C 
HETATM    4  C   UNL     1      42.383  46.529  32.465  1.00  0.00     0.176 C 
HETATM    5  C   UNL     1      40.555  45.250  34.298  1.00  0.00     0.197 C 
HETATM    6  C   UNL     1      41.687  44.527  33.549  1.00  0.00     0.263 C 
ENDROOT
BRANCH   4   7
HETATM    7  C   UNL     1      43.635  47.378  32.229  1.00  0.00     0.170 C 
BRANCH   7   8
HETATM    8  O   UNL     1      43.413  48.243  31.113  1.00  0.00    -0.380 OA
HETATM    9  H   UNL     1      44.153  48.069  30.496  1.00  0.00     0.211 HD
ENDBRANCH   7   8
ENDBRANCH   4   7
BRANCH   2  10
HETATM   10  O   UNL     1      40.785  48.401  32.256  1.00  0.00    -0.380 OA
HETATM   11  H   UNL     1      39.911  48.696  32.571  1.00  0.00     0.211 HD
ENDBRANCH   2  10
BRANCH   6  12
HETATM   12  O   UNL     1      42.163  43.438  34.328  1.00  0.00    -0.359 OA
HETATM   13  H   UNL     1      42.994  43.746  34.735  1.00  0.00     0.213 HD
ENDBRANCH   6  12
BRANCH   3  14
HETATM   14  O   UNL     1      39.098  47.173  34.225  1.00  0.00    -0.380 OA
HETATM   15  H   UNL     1      39.576  47.577  34.977  1.00  0.00     0.211 HD
ENDBRANCH   3  14
BRANCH   5  16
HETATM   16  O   UNL     1      39.463  44.356  34.547  1.00  0.00    -0.378 OA
HETATM   17  H   UNL     1      39.492  43.709  33.813  1.00  0.00     0.211 HD
ENDBRANCH   5  16
TORSDOF 6
ENDMDL
MODEL 7
REMARK VINA RESULT:    -3.812      0.993      2.868
REMARK INTER + INTRA:          -4.809
REMARK INTER:                  -4.765
REMARK INTRA:                  -0.045
REMARK UNBOUND:                -0.218
REMARK  6 active torsions:
REMARK  status: ('A' for Active; 'I' for Inactive)
REMARK    1  A    between atoms: O_2  and  C_7 
REMARK    2  A    between atoms: O_3  and  C_8 
REMARK    3  A    between atoms: O_4  and  C_10 
REMARK    4  A    between atoms: O_5  and  C_11 
REMARK    5  A    between atoms: O_6  and  C_12 
REMARK    6  A    between atoms: C_9  and  C_12 
ROOT
HETATM    1  O   UNL     1      30.438  34.955  14.400  1.00  0.00    -0.327 OA
HETATM    2  C   UNL     1      32.603  34.298  13.460  1.00  0.00     0.170 C 
HETATM    3  C   UNL     1      32.574  33.036  14.329  1.00  0.00     0.172 C 
HETATM    4  C   UNL     1      31.772  35.410  14.118  1.00  0.00     0.176 C 
HETATM    5  C   UNL     1      31.137  32.649  14.671  1.00  0.00     0.197 C 
HETATM    6  C   UNL     1      30.418  33.853  15.303  1.00  0.00     0.263 C 
ENDROOT
BRANCH   4   7
HETATM    7  C   UNL     1      31.653  36.634  13.204  1.00  0.00     0.170 C 
BRANCH   7   8
HETATM    8  O   UNL     1      30.440  37.326  13.502  1.00  0.00    -0.380 OA
HETATM    9  H   UNL     1      30.704  38.249  13.694  1.00  0.00     0.211 HD
ENDBRANCH   7   8
ENDBRANCH   4   7
BRANCH   2  10
HETATM   10  O   UNL     1      33.966  34.679  13.250  1.00  0.00    -0.380 OA
HETATM   11  H   UNL     1      33.988  35.556  12.822  1.00  0.00     0.211 HD
ENDBRANCH   2  10
BRANCH   6  12
HETATM   12  O   UNL     1      29.067  33.514  15.587  1.00  0.00    -0.359 OA
HETATM   13  H   UNL     1      29.073  33.125  16.482  1.00  0.00     0.213 HD
ENDBRANCH   6  12
BRANCH   3  14
HETATM   14  O   UNL     1      33.205  31.942  13.648  1.00  0.00    -0.380 OA
HETATM   15  H   UNL     1      32.870  31.966  12.728  1.00  0.00     0.211 HD
ENDBRANCH   3  14
BRANCH   5  16
HETATM   16  O   UNL     1      31.125  31.528  15.564  1.00  0.00    -0.378 OA
HETATM   17  H   UNL     1      31.914  31.001  15.321  1.00  0.00     0.211 HD
ENDBRANCH   5  16
TORSDOF 6
ENDMDL
MODEL 8
REMARK VINA RESULT:    -3.806     24.027     24.669
REMARK INTER + INTRA:          -4.803
REMARK INTER:                  -4.556
REMARK INTRA:                  -0.247
REMARK UNBOUND:                -0.218
REMARK  6 active torsions:
REMARK  status: ('A' for Active; 'I' for Inactive)
REMARK    1  A    between atoms: O_2  and  C_7 
REMARK    2  A    between atoms: O_3  and  C_8 
REMARK    3  A    between atoms: O_4  and  C_10 
REMARK    4  A    between atoms: O_5  and  C_11 
REMARK    5  A    between atoms: O_6  and  C_12 
REMARK    6  A    between atoms: C_9  and  C_12 
ROOT
HETATM    1  O   UNL     1      41.827  44.883  33.951  1.00  0.00    -0.327 OA
HETATM    2  C   UNL     1      41.941  46.415  32.044  1.00  0.00     0.170 C 
HETATM    3  C   UNL     1      40.615  47.040  32.491  1.00  0.00     0.172 C 
HETATM    4  C   UNL     1      42.031  44.961  32.531  1.00  0.00     0.176 C 
HETATM    5  C   UNL     1      40.409  46.850  33.992  1.00  0.00     0.197 C 
HETATM    6  C   UNL     1      40.542  45.359  34.344  1.00  0.00     0.263 C 
ENDROOT
BRANCH   4   7
HETATM    7  C   UNL     1      43.406  44.355  32.233  1.00  0.00     0.170 C 
BRANCH   7   8
HETATM    8  O   UNL     1      43.464  43.976  30.857  1.00  0.00    -0.380 OA
HETATM    9  H   UNL     1      44.235  44.452  30.487  1.00  0.00     0.211 HD
ENDBRANCH   7   8
ENDBRANCH   4   7
BRANCH   2  10
HETATM   10  O   UNL     1      42.044  46.527  30.621  1.00  0.00    -0.380 OA
HETATM   11  H   UNL     1      42.896  46.943  30.395  1.00  0.00     0.211 HD
ENDBRANCH   2  10
BRANCH   6  12
HETATM   12  O   UNL     1      40.392  45.178  35.746  1.00  0.00    -0.359 OA
HETATM   13  H   UNL     1      40.020  44.283  35.861  1.00  0.00     0.213 HD
ENDBRANCH   6  12
BRANCH   3  14
HETATM   14  O   UNL     1      40.592  48.442  32.188  1.00  0.00    -0.380 OA
HETATM   15  H   UNL     1      41.331  48.597  31.564  1.00  0.00     0.211 HD
ENDBRANCH   3  14
BRANCH   5  16
HETATM   16  O   UNL     1      39.123  47.348  34.382  1.00  0.00    -0.378 OA
HETATM   17  H   UNL     1      39.312  48.092  34.990  1.00  0.00     0.211 HD
ENDBRANCH   5  16
TORSDOF 6
ENDMDL
MODEL 9
REMARK VINA RESULT:    -3.756     24.641     25.301
REMARK INTER + INTRA:          -4.742
REMARK INTER:                  -4.502
REMARK INTRA:                  -0.240
REMARK UNBOUND:                -0.218
REMARK  6 active torsions:
REMARK  status: ('A' for Active; 'I' for Inactive)
REMARK    1  A    between atoms: O_2  and  C_7 
REMARK    2  A    between atoms: O_3  and  C_8 
REMARK    3  A    between atoms: O_4  and  C_10 
REMARK    4  A    between atoms: O_5  and  C_11 
REMARK    5  A    between atoms: O_6  and  C_12 
REMARK    6  A    between atoms: C_9  and  C_12 
ROOT
HETATM    1  O   UNL     1      41.196  44.582  33.254  1.00  0.00    -0.327 OA
HETATM    2  C   UNL     1      40.087  46.092  34.831  1.00  0.00     0.170 C 
HETATM    3  C   UNL     1      40.833  47.270  34.196  1.00  0.00     0.172 C 
HETATM    4  C   UNL     1      40.889  44.796  34.641  1.00  0.00     0.176 C 
HETATM    5  C   UNL     1      41.212  46.954  32.751  1.00  0.00     0.197 C 
HETATM    6  C   UNL     1      41.992  45.629  32.704  1.00  0.00     0.263 C 
ENDROOT
BRANCH   4   7
HETATM    7  C   UNL     1      40.103  43.575  35.129  1.00  0.00     0.170 C 
BRANCH   7   8
HETATM    8  O   UNL     1      40.057  43.584  36.556  1.00  0.00    -0.380 OA
HETATM    9  H   UNL     1      39.147  43.860  36.788  1.00  0.00     0.211 HD
ENDBRANCH   7   8
ENDBRANCH   4   7
BRANCH   2  10
HETATM   10  O   UNL     1      39.843  46.392  36.209  1.00  0.00    -0.380 OA
HETATM   11  H   UNL     1      39.862  45.563  36.723  1.00  0.00     0.211 HD
ENDBRANCH   2  10
BRANCH   6  12
HETATM   12  O   UNL     1      42.313  45.305  31.357  1.00  0.00    -0.359 OA
HETATM   13  H   UNL     1      42.704  44.412  31.384  1.00  0.00     0.213 HD
ENDBRANCH   6  12
BRANCH   3  14
HETATM   14  O   UNL     1      40.019  48.452  34.220  1.00  0.00    -0.380 OA
HETATM   15  H   UNL     1      39.432  48.362  34.998  1.00  0.00     0.211 HD
ENDBRANCH   3  14
BRANCH   5  16
HETATM   16  O   UNL     1      41.995  48.021  32.200  1.00  0.00    -0.378 OA
HETATM   17  H   UNL     1      41.523  48.287  31.384  1.00  0.00     0.211 HD
ENDBRANCH   5  16
TORSDOF 6
ENDMDL
MODEL 10
REMARK VINA RESULT:    -3.713     26.069     26.781
REMARK INTER + INTRA:          -4.690
REMARK INTER:                  -4.435
REMARK INTRA:                  -0.256
REMARK UNBOUND:                -0.218
REMARK  6 active torsions:
REMARK  status: ('A' for Active; 'I' for Inactive)
REMARK    1  A    between atoms: O_2  and  C_7 
REMARK    2  A    between atoms: O_3  and  C_8 
REMARK    3  A    between atoms: O_4  and  C_10 
REMARK    4  A    between atoms: O_5  and  C_11 
REMARK    5  A    between atoms: O_6  and  C_12 
REMARK    6  A    between atoms: C_9  and  C_12 
ROOT
HETATM    1  O   UNL     1      41.565  46.755  35.963  1.00  0.00    -0.327 OA
HETATM    2  C   UNL     1      42.844  47.543  34.028  1.00  0.00     0.170 C 
HETATM    3  C   UNL     1      41.542  47.616  33.223  1.00  0.00     0.172 C 
HETATM    4  C   UNL     1      42.716  46.494  35.143  1.00  0.00     0.176 C 
HETATM    5  C   UNL     1      40.344  47.806  34.150  1.00  0.00     0.197 C 
HETATM    6  C   UNL     1      40.347  46.704  35.224  1.00  0.00     0.263 C 
ENDROOT
BRANCH   4   7
HETATM    7  C   UNL     1      43.942  46.501  36.061  1.00  0.00     0.170 C 
BRANCH   7   8
HETATM    8  O   UNL     1      44.608  47.760  35.946  1.00  0.00    -0.380 OA
HETATM    9  H   UNL     1      45.249  47.785  36.685  1.00  0.00     0.211 HD
ENDBRANCH   7   8
ENDBRANCH   4   7
BRANCH   2  10
HETATM   10  O   UNL     1      43.923  47.264  33.131  1.00  0.00    -0.380 OA
HETATM   11  H   UNL     1      44.766  47.327  33.618  1.00  0.00     0.211 HD
ENDBRANCH   2  10
BRANCH   6  12
HETATM   12  O   UNL     1      39.257  46.897  36.116  1.00  0.00    -0.359 OA
HETATM   13  H   UNL     1      39.420  46.297  36.867  1.00  0.00     0.213 HD
ENDBRANCH   6  12
BRANCH   3  14
HETATM   14  O   UNL     1      41.590  48.705  32.289  1.00  0.00    -0.380 OA
HETATM   15  H   UNL     1      41.537  49.524  32.823  1.00  0.00     0.211 HD
ENDBRANCH   3  14
BRANCH   5  16
HETATM   16  O   UNL     1      39.125  47.773  33.396  1.00  0.00    -0.378 OA
HETATM   17  H   UNL     1      38.911  46.823  33.301  1.00  0.00     0.211 HD
ENDBRANCH   5  16
TORSDOF 6
ENDMDL
