MODEL 1
REMARK VINA RESULT:    -7.070      0.000      0.000
REMARK INTER + INTRA:         -11.824
REMARK INTER:                 -10.712
REMARK INTRA:                  -1.112
REMARK UNBOUND:                -1.447
REMARK  12 active torsions:
REMARK  status: ('A' for Active; 'I' for Inactive)
REMARK    1  A    between atoms: O_1  and  C_12 
REMARK    2  A    between atoms: O_1  and  C_14 
REMARK    3  A    between atoms: O_4  and  C_13 
REMARK    4  A    between atoms: O_5  and  C_16 
REMARK    5  A    between atoms: O_6  and  C_17 
REMARK    6  A    between atoms: O_7  and  C_18 
REMARK    7  A    between atoms: O_8  and  C_19 
REMARK    8  A    between atoms: O_9  and  C_21 
REMARK    9  A    between atoms: O_10  and  C_22 
REMARK   10  A    between atoms: O_11  and  C_23 
REMARK   11  A    between atoms: C_15  and  C_22 
REMARK   12  A    between atoms: C_20  and  C_23 
ROOT
HETATM    1  O   UNL     1      44.888  44.487  47.450  1.00  0.00    -0.326 OA
ENDROOT
BRANCH   1   2
HETATM    2  C   UNL     1      45.278  43.329  48.218  1.00  0.00     0.177 C 
HETATM    3  C   UNL     1      46.769  43.005  47.983  1.00  0.00     0.172 C 
HETATM    4  C   UNL     1      47.298  41.989  49.002  1.00  0.00     0.197 C 
HETATM    5  C   UNL     1      46.903  42.391  50.430  1.00  0.00     0.263 C 
HETATM    6  O   UNL     1      45.503  42.576  50.547  1.00  0.00    -0.327 OA
HETATM    7  C   UNL     1      45.042  43.646  49.705  1.00  0.00     0.177 C 
BRANCH   3   8
HETATM    8  O   UNL     1      46.947  42.466  46.660  1.00  0.00    -0.380 OA
HETATM    9  H   UNL     1      46.197  41.852  46.527  1.00  0.00     0.211 HD
ENDBRANCH   3   8
BRANCH   4  10
HETATM   10  O   UNL     1      48.731  41.902  48.917  1.00  0.00    -0.378 OA
HETATM   11  H   UNL     1      49.001  42.648  48.349  1.00  0.00     0.211 HD
ENDBRANCH   4  10
BRANCH   5  12
HETATM   12  O   UNL     1      47.282  41.338  51.308  1.00  0.00    -0.359 OA
HETATM   13  H   UNL     1      47.365  40.551  50.744  1.00  0.00     0.213 HD
ENDBRANCH   5  12
BRANCH   7  14
HETATM   14  C   UNL     1      43.550  43.841  49.999  1.00  0.00     0.170 C 
BRANCH  14  15
HETATM   15  O   UNL     1      42.781  42.964  49.176  1.00  0.00    -0.380 OA
HETATM   16  H   UNL     1      41.866  43.022  49.510  1.00  0.00     0.211 HD
ENDBRANCH  14  15
ENDBRANCH   7  14
ENDBRANCH   1   2
BRANCH   1  17
HETATM   17  C   UNL     1      44.104  44.178  46.291  1.00  0.00     0.266 C 
HETATM   18  O   UNL     1      44.937  43.599  45.293  1.00  0.00    -0.326 OA
HETATM   19  C   UNL     1      44.183  43.206  44.123  1.00  0.00     0.176 C 
HETATM   20  C   UNL     1      43.634  44.468  43.442  1.00  0.00     0.170 C 
HETATM   21  C   UNL     1      42.752  45.229  44.452  1.00  0.00     0.172 C 
HETATM   22  C   UNL     1      43.495  45.493  45.767  1.00  0.00     0.197 C 
BRANCH  19  23
HETATM   23  C   UNL     1      45.128  42.409  43.220  1.00  0.00     0.170 C 
BRANCH  23  24
HETATM   24  O   UNL     1      46.015  41.635  44.031  1.00  0.00    -0.380 OA
HETATM   25  H   UNL     1      46.903  41.683  43.619  1.00  0.00     0.211 HD
ENDBRANCH  23  24
ENDBRANCH  19  23
BRANCH  20  26
HETATM   26  O   UNL     1      44.721  45.280  42.978  1.00  0.00    -0.380 OA
HETATM   27  H   UNL     1      44.508  46.215  43.136  1.00  0.00     0.211 HD
ENDBRANCH  20  26
BRANCH  21  28
HETATM   28  O   UNL     1      42.285  46.464  43.905  1.00  0.00    -0.380 OA
HETATM   29  H   UNL     1      41.387  46.597  44.267  1.00  0.00     0.211 HD
ENDBRANCH  21  28
BRANCH  22  30
HETATM   30  O   UNL     1      42.574  46.055  46.714  1.00  0.00    -0.378 OA
HETATM   31  H   UNL     1      42.513  47.006  46.501  1.00  0.00     0.211 HD
ENDBRANCH  22  30
ENDBRANCH   1  17
TORSDOF 12
ENDMDL
MODEL 2
REMARK VINA RESULT:    -6.288      3.527      6.279
REMARK INTER + INTRA:         -10.676
REMARK INTER:                  -9.266
REMARK INTRA:                  -1.410
REMARK UNBOUND:                -1.447
REMARK  12 active torsions:
REMARK  status: ('A' for Active; 'I' for Inactive)
REMARK    1  A    between atoms: O_1  and  C_12 
REMARK    2  A    between atoms: O_1  and  C_14 
REMARK    3  A    between atoms: O_4  and  C_13 
REMARK    4  A    between atoms: O_5  and  C_16 
REMARK    5  A    between atoms: O_6  and  C_17 
REMARK    6  A    between atoms: O_7  and  C_18 
REMARK    7  A    between atoms: O_8  and  C_19 
REMARK    8  A    between atoms: O_9  and  C_21 
REMARK    9  A    between atoms: O_10  and  C_22 
REMARK   10  A    between atoms: O_11  and  C_23 
REMARK   11  A    between atoms: C_15  and  C_22 
REMARK   12  A    between atoms: C_20  and  C_23 
ROOT
HETATM    1  O   UNL     1      45.249  42.940  52.596  1.00  0.00    -0.326 OA
ENDROOT
BRANCH   1   2
HETATM    2  C   UNL     1      44.988  43.836  53.695  1.00  0.00     0.177 C 
HETATM    3  C   UNL     1      46.243  44.677  54.013  1.00  0.00     0.172 C 
HETATM    4  C   UNL     1      45.924  45.845  54.953  1.00  0.00     0.197 C 
HETATM    5  C   UNL     1      44.689  46.617  54.464  1.00  0.00     0.263 C 
HETATM    6  O   UNL     1      43.576  45.758  54.291  1.00  0.00    -0.327 OA
HETATM    7  C   UNL     1      43.831  44.764  53.285  1.00  0.00     0.177 C 
BRANCH   3   8
HETATM    8  O   UNL     1      47.241  43.846  54.635  1.00  0.00    -0.380 OA
HETATM    9  H   UNL     1      46.778  43.016  54.868  1.00  0.00     0.211 HD
ENDBRANCH   3   8
BRANCH   4  10
HETATM   10  O   UNL     1      47.044  46.745  55.025  1.00  0.00    -0.378 OA
HETATM   11  H   UNL     1      46.671  47.633  54.866  1.00  0.00     0.211 HD
ENDBRANCH   4  10
BRANCH   5  12
HETATM   12  O   UNL     1      44.352  47.583  55.452  1.00  0.00    -0.359 OA
HETATM   13  H   UNL     1      45.200  47.946  55.756  1.00  0.00     0.213 HD
ENDBRANCH   5  12
BRANCH   7  14
HETATM   14  C   UNL     1      42.531  43.974  53.093  1.00  0.00     0.170 C 
BRANCH  14  15
HETATM   15  O   UNL     1      42.304  43.758  51.701  1.00  0.00    -0.380 OA
HETATM   16  H   UNL     1      41.603  44.389  51.446  1.00  0.00     0.211 HD
ENDBRANCH  14  15
ENDBRANCH   7  14
ENDBRANCH   1   2
BRANCH   1  17
HETATM   17  C   UNL     1      45.686  43.599  51.400  1.00  0.00     0.266 C 
HETATM   18  O   UNL     1      44.702  43.443  50.384  1.00  0.00    -0.326 OA
HETATM   19  C   UNL     1      45.061  44.147  49.173  1.00  0.00     0.176 C 
HETATM   20  C   UNL     1      46.307  43.485  48.567  1.00  0.00     0.170 C 
HETATM   21  C   UNL     1      47.445  43.533  49.607  1.00  0.00     0.172 C 
HETATM   22  C   UNL     1      47.008  42.945  50.954  1.00  0.00     0.197 C 
BRANCH  19  23
HETATM   23  C   UNL     1      43.849  44.094  48.239  1.00  0.00     0.170 C 
BRANCH  23  24
HETATM   24  O   UNL     1      42.928  43.110  48.717  1.00  0.00    -0.380 OA
HETATM   25  H   UNL     1      43.425  42.510  49.311  1.00  0.00     0.211 HD
ENDBRANCH  23  24
ENDBRANCH  19  23
BRANCH  20  26
HETATM   26  O   UNL     1      46.002  42.137  48.185  1.00  0.00    -0.380 OA
HETATM   27  H   UNL     1      46.832  41.642  48.080  1.00  0.00     0.211 HD
ENDBRANCH  20  26
BRANCH  21  28
HETATM   28  O   UNL     1      48.608  42.848  49.136  1.00  0.00    -0.380 OA
HETATM   29  H   UNL     1      49.371  43.391  49.415  1.00  0.00     0.211 HD
ENDBRANCH  21  28
BRANCH  22  30
HETATM   30  O   UNL     1      48.050  43.167  51.916  1.00  0.00    -0.378 OA
HETATM   31  H   UNL     1      47.636  43.053  52.794  1.00  0.00     0.211 HD
ENDBRANCH  22  30
ENDBRANCH   1  17
TORSDOF 12
ENDMDL
MODEL 3
REMARK VINA RESULT:    -6.081      2.641      7.703
REMARK INTER + INTRA:         -10.372
REMARK INTER:                  -8.925
REMARK INTRA:                  -1.447
REMARK UNBOUND:                -1.447
REMARK  12 active torsions:
REMARK  status: ('A' for Active; 'I' for Inactive)
REMARK    1  A    between atoms: O_1  and  C_12 
REMARK    2  A    between atoms: O_1  and  C_14 
REMARK    3  A    between atoms: O_4  and  C_13 
REMARK    4  A    between atoms: O_5  and  C_16 
REMARK    5  A    between atoms: O_6  and  C_17 
REMARK    6  A    between atoms: O_7  and  C_18 
REMARK    7  A    between atoms: O_8  and  C_19 
REMARK    8  A    between atoms: O_9  and  C_21 
REMARK    9  A    between atoms: O_10  and  C_22 
REMARK   10  A    between atoms: O_11  and  C_23 
REMARK   11  A    between atoms: C_15  and  C_22 
REMARK   12  A    between atoms: C_20  and  C_23 
ROOT
HETATM    1  O   UNL     1      45.757  43.844  50.608  1.00  0.00    -0.326 OA
ENDROOT
BRANCH   1   2
HETATM    2  C   UNL     1      45.127  43.420  49.382  1.00  0.00     0.177 C 
HETATM    3  C   UNL     1      43.899  44.303  49.074  1.00  0.00     0.172 C 
HETATM    4  C   UNL     1      43.391  44.094  47.643  1.00  0.00     0.197 C 
HETATM    5  C   UNL     1      44.549  44.161  46.637  1.00  0.00     0.263 C 
HETATM    6  O   UNL     1      45.579  43.246  46.971  1.00  0.00    -0.327 OA
HETATM    7  C   UNL     1      46.160  43.554  48.249  1.00  0.00     0.177 C 
BRANCH   3   8
HETATM    8  O   UNL     1      42.834  43.990  49.991  1.00  0.00    -0.380 OA
HETATM    9  H   UNL     1      42.199  43.451  49.477  1.00  0.00     0.211 HD
ENDBRANCH   3   8
BRANCH   4  10
HETATM   10  O   UNL     1      42.419  45.100  47.309  1.00  0.00    -0.378 OA
HETATM   11  H   UNL     1      41.640  44.898  47.862  1.00  0.00     0.211 HD
ENDBRANCH   4  10
BRANCH   5  12
HETATM   12  O   UNL     1      44.043  43.806  45.356  1.00  0.00    -0.359 OA
HETATM   13  H   UNL     1      44.499  42.982  45.119  1.00  0.00     0.213 HD
ENDBRANCH   5  12
BRANCH   7  14
HETATM   14  C   UNL     1      47.334  42.589  48.453  1.00  0.00     0.170 C 
BRANCH  14  15
HETATM   15  O   UNL     1      48.258  43.150  49.385  1.00  0.00    -0.380 OA
HETATM   16  H   UNL     1      47.713  43.555  50.087  1.00  0.00     0.211 HD
ENDBRANCH  14  15
ENDBRANCH   7  14
ENDBRANCH   1   2
BRANCH   1  17
HETATM   17  C   UNL     1      45.385  43.063  51.752  1.00  0.00     0.266 C 
HETATM   18  O   UNL     1      44.265  43.662  52.393  1.00  0.00    -0.326 OA
HETATM   19  C   UNL     1      43.804  42.878  53.518  1.00  0.00     0.176 C 
HETATM   20  C   UNL     1      44.888  42.891  54.606  1.00  0.00     0.170 C 
HETATM   21  C   UNL     1      46.190  42.316  54.012  1.00  0.00     0.172 C 
HETATM   22  C   UNL     1      46.587  43.034  52.716  1.00  0.00     0.197 C 
BRANCH  19  23
HETATM   23  C   UNL     1      42.484  43.490  53.990  1.00  0.00     0.170 C 
BRANCH  23  24
HETATM   24  O   UNL     1      42.445  44.871  53.620  1.00  0.00    -0.380 OA
HETATM   25  H   UNL     1      41.507  45.104  53.462  1.00  0.00     0.211 HD
ENDBRANCH  23  24
ENDBRANCH  19  23
BRANCH  20  26
HETATM   26  O   UNL     1      45.076  44.229  55.086  1.00  0.00    -0.380 OA
HETATM   27  H   UNL     1      45.928  44.565  54.762  1.00  0.00     0.211 HD
ENDBRANCH  20  26
BRANCH  21  28
HETATM   28  O   UNL     1      47.265  42.388  54.952  1.00  0.00    -0.380 OA
HETATM   29  H   UNL     1      47.421  43.339  55.109  1.00  0.00     0.211 HD
ENDBRANCH  21  28
BRANCH  22  30
HETATM   30  O   UNL     1      47.706  42.350  52.132  1.00  0.00    -0.378 OA
HETATM   31  H   UNL     1      47.528  41.396  52.242  1.00  0.00     0.211 HD
ENDBRANCH  22  30
ENDBRANCH   1  17
TORSDOF 12
ENDMDL
MODEL 4
REMARK VINA RESULT:    -5.906      3.564      5.785
REMARK INTER + INTRA:         -10.116
REMARK INTER:                  -8.728
REMARK INTRA:                  -1.388
REMARK UNBOUND:                -1.447
REMARK  12 active torsions:
REMARK  status: ('A' for Active; 'I' for Inactive)
REMARK    1  A    between atoms: O_1  and  C_12 
REMARK    2  A    between atoms: O_1  and  C_14 
REMARK    3  A    between atoms: O_4  and  C_13 
REMARK    4  A    between atoms: O_5  and  C_16 
REMARK    5  A    between atoms: O_6  and  C_17 
REMARK    6  A    between atoms: O_7  and  C_18 
REMARK    7  A    between atoms: O_8  and  C_19 
REMARK    8  A    between atoms: O_9  and  C_21 
REMARK    9  A    between atoms: O_10  and  C_22 
REMARK   10  A    between atoms: O_11  and  C_23 
REMARK   11  A    between atoms: C_15  and  C_22 
REMARK   12  A    between atoms: C_20  and  C_23 
ROOT
HETATM    1  O   UNL     1      44.774  43.665  52.442  1.00  0.00    -0.326 OA
ENDROOT
BRANCH   1   2
HETATM    2  C   UNL     1      44.300  42.724  53.427  1.00  0.00     0.177 C 
HETATM    3  C   UNL     1      45.486  42.123  54.211  1.00  0.00     0.172 C 
HETATM    4  C   UNL     1      45.019  41.365  55.460  1.00  0.00     0.197 C 
HETATM    5  C   UNL     1      44.022  42.207  56.269  1.00  0.00     0.263 C 
HETATM    6  O   UNL     1      42.932  42.630  55.468  1.00  0.00    -0.327 OA
HETATM    7  C   UNL     1      43.368  43.478  54.392  1.00  0.00     0.177 C 
BRANCH   3   8
HETATM    8  O   UNL     1      46.216  41.213  53.367  1.00  0.00    -0.380 OA
HETATM    9  H   UNL     1      46.314  40.393  53.892  1.00  0.00     0.211 HD
ENDBRANCH   3   8
BRANCH   4  10
HETATM   10  O   UNL     1      46.145  41.039  56.293  1.00  0.00    -0.378 OA
HETATM   11  H   UNL     1      45.772  40.888  57.182  1.00  0.00     0.211 HD
ENDBRANCH   4  10
BRANCH   5  12
HETATM   12  O   UNL     1      43.509  41.398  57.319  1.00  0.00    -0.359 OA
HETATM   13  H   UNL     1      43.180  42.022  57.987  1.00  0.00     0.213 HD
ENDBRANCH   5  12
BRANCH   7  14
HETATM   14  C   UNL     1      42.109  43.974  53.671  1.00  0.00     0.170 C 
BRANCH  14  15
HETATM   15  O   UNL     1      42.408  45.172  52.956  1.00  0.00    -0.380 OA
HETATM   16  H   UNL     1      43.018  44.909  52.240  1.00  0.00     0.211 HD
ENDBRANCH  14  15
ENDBRANCH   7  14
ENDBRANCH   1   2
BRANCH   1  17
HETATM   17  C   UNL     1      44.923  43.107  51.130  1.00  0.00     0.266 C 
HETATM   18  O   UNL     1      46.306  42.986  50.818  1.00  0.00    -0.326 OA
HETATM   19  C   UNL     1      46.516  42.365  49.529  1.00  0.00     0.176 C 
HETATM   20  C   UNL     1      45.985  43.304  48.436  1.00  0.00     0.170 C 
HETATM   21  C   UNL     1      44.488  43.569  48.699  1.00  0.00     0.172 C 
HETATM   22  C   UNL     1      44.242  44.062  50.130  1.00  0.00     0.197 C 
BRANCH  19  23
HETATM   23  C   UNL     1      48.016  42.090  49.396  1.00  0.00     0.170 C 
BRANCH  23  24
HETATM   24  O   UNL     1      48.748  43.195  49.930  1.00  0.00    -0.380 OA
HETATM   25  H   UNL     1      48.788  43.883  49.233  1.00  0.00     0.211 HD
ENDBRANCH  23  24
ENDBRANCH  19  23
BRANCH  20  26
HETATM   26  O   UNL     1      46.741  44.523  48.435  1.00  0.00    -0.380 OA
HETATM   27  H   UNL     1      47.681  44.312  48.311  1.00  0.00     0.211 HD
ENDBRANCH  20  26
BRANCH  21  28
HETATM   28  O   UNL     1      43.957  44.512  47.765  1.00  0.00    -0.380 OA
HETATM   29  H   UNL     1      43.257  44.039  47.274  1.00  0.00     0.211 HD
ENDBRANCH  21  28
BRANCH  22  30
HETATM   30  O   UNL     1      42.826  44.132  50.358  1.00  0.00    -0.378 OA
HETATM   31  H   UNL     1      42.700  44.011  51.319  1.00  0.00     0.211 HD
ENDBRANCH  22  30
ENDBRANCH   1  17
TORSDOF 12
ENDMDL
MODEL 5
REMARK VINA RESULT:    -5.842      3.802      6.359
REMARK INTER + INTRA:         -10.022
REMARK INTER:                  -8.533
REMARK INTRA:                  -1.488
REMARK UNBOUND:                -1.447
REMARK  12 active torsions:
REMARK  status: ('A' for Active; 'I' for Inactive)
REMARK    1  A    between atoms: O_1  and  C_12 
REMARK    2  A    between atoms: O_1  and  C_14 
REMARK    3  A    between atoms: O_4  and  C_13 
REMARK    4  A    between atoms: O_5  and  C_16 
REMARK    5  A    between atoms: O_6  and  C_17 
REMARK    6  A    between atoms: O_7  and  C_18 
REMARK    7  A    between atoms: O_8  and  C_19 
REMARK    8  A    between atoms: O_9  and  C_21 
REMARK    9  A    between atoms: O_10  and  C_22 
REMARK   10  A    between atoms: O_11  and  C_23 
REMARK   11  A    between atoms: C_15  and  C_22 
REMARK   12  A    between atoms: C_20  and  C_23 
ROOT
HETATM    1  O   UNL     1      44.385  45.471  52.266  1.00  0.00    -0.326 OA
ENDROOT
BRANCH   1   2
HETATM    2  C   UNL     1      43.956  45.207  53.618  1.00  0.00     0.177 C 
HETATM    3  C   UNL     1      42.861  44.120  53.631  1.00  0.00     0.172 C 
HETATM    4  C   UNL     1      42.601  43.590  55.047  1.00  0.00     0.197 C 
HETATM    5  C   UNL     1      43.920  43.240  55.750  1.00  0.00     0.263 C 
HETATM    6  O   UNL     1      44.813  44.341  55.753  1.00  0.00    -0.327 OA
HETATM    7  C   UNL     1      45.179  44.723  54.417  1.00  0.00     0.177 C 
BRANCH   3   8
HETATM    8  O   UNL     1      41.633  44.660  53.109  1.00  0.00    -0.380 OA
HETATM    9  H   UNL     1      40.975  44.547  53.825  1.00  0.00     0.211 HD
ENDBRANCH   3   8
BRANCH   4  10
HETATM   10  O   UNL     1      41.770  42.418  54.993  1.00  0.00    -0.378 OA
HETATM   11  H   UNL     1      41.114  42.534  55.707  1.00  0.00     0.211 HD
ENDBRANCH   4  10
BRANCH   5  12
HETATM   12  O   UNL     1      43.626  42.908  57.101  1.00  0.00    -0.359 OA
HETATM   13  H   UNL     1      44.458  42.565  57.468  1.00  0.00     0.213 HD
ENDBRANCH   5  12
BRANCH   7  14
HETATM   14  C   UNL     1      46.233  45.830  54.538  1.00  0.00     0.170 C 
BRANCH  14  15
HETATM   15  O   UNL     1      46.846  46.049  53.268  1.00  0.00    -0.380 OA
HETATM   16  H   UNL     1      47.615  46.627  53.441  1.00  0.00     0.211 HD
ENDBRANCH  14  15
ENDBRANCH   7  14
ENDBRANCH   1   2
BRANCH   1  17
HETATM   17  C   UNL     1      44.547  44.291  51.468  1.00  0.00     0.266 C 
HETATM   18  O   UNL     1      45.933  44.006  51.315  1.00  0.00    -0.326 OA
HETATM   19  C   UNL     1      46.154  42.786  50.572  1.00  0.00     0.176 C 
HETATM   20  C   UNL     1      45.670  42.992  49.129  1.00  0.00     0.170 C 
HETATM   21  C   UNL     1      44.177  43.372  49.159  1.00  0.00     0.172 C 
HETATM   22  C   UNL     1      43.913  44.562  50.090  1.00  0.00     0.197 C 
BRANCH  19  23
HETATM   23  C   UNL     1      47.648  42.466  50.656  1.00  0.00     0.170 C 
BRANCH  23  24
HETATM   24  O   UNL     1      48.395  43.685  50.616  1.00  0.00    -0.380 OA
HETATM   25  H   UNL     1      48.622  43.918  51.540  1.00  0.00     0.211 HD
ENDBRANCH  23  24
ENDBRANCH  19  23
BRANCH  20  26
HETATM   26  O   UNL     1      46.458  44.009  48.494  1.00  0.00    -0.380 OA
HETATM   27  H   UNL     1      47.282  44.129  48.995  1.00  0.00     0.211 HD
ENDBRANCH  20  26
BRANCH  21  28
HETATM   28  O   UNL     1      43.690  43.667  47.848  1.00  0.00    -0.380 OA
HETATM   29  H   UNL     1      44.317  43.248  47.227  1.00  0.00     0.211 HD
ENDBRANCH  21  28
BRANCH  22  30
HETATM   30  O   UNL     1      42.495  44.759  50.199  1.00  0.00    -0.378 OA
HETATM   31  H   UNL     1      42.342  45.140  51.085  1.00  0.00     0.211 HD
ENDBRANCH  22  30
ENDBRANCH   1  17
TORSDOF 12
ENDMDL
MODEL 6
REMARK VINA RESULT:    -5.736      3.426      7.310
REMARK INTER + INTRA:          -9.866
REMARK INTER:                  -9.115
REMARK INTRA:                  -0.752
REMARK UNBOUND:                -1.447
REMARK  12 active torsions:
REMARK  status: ('A' for Active; 'I' for Inactive)
REMARK    1  A    between atoms: O_1  and  C_12 
REMARK    2  A    between atoms: O_1  and  C_14 
REMARK    3  A    between atoms: O_4  and  C_13 
REMARK    4  A    between atoms: O_5  and  C_16 
REMARK    5  A    between atoms: O_6  and  C_17 
REMARK    6  A    between atoms: O_7  and  C_18 
REMARK    7  A    between atoms: O_8  and  C_19 
REMARK    8  A    between atoms: O_9  and  C_21 
REMARK    9  A    between atoms: O_10  and  C_22 
REMARK   10  A    between atoms: O_11  and  C_23 
REMARK   11  A    between atoms: C_15  and  C_22 
REMARK   12  A    between atoms: C_20  and  C_23 
ROOT
HETATM    1  O   UNL     1      44.882  43.621  51.497  1.00  0.00    -0.326 OA
ENDROOT
BRANCH   1   2
HETATM    2  C   UNL     1      45.591  43.808  50.255  1.00  0.00     0.177 C 
HETATM    3  C   UNL     1      46.963  43.100  50.307  1.00  0.00     0.172 C 
HETATM    4  C   UNL     1      47.610  43.007  48.921  1.00  0.00     0.197 C 
HETATM    5  C   UNL     1      46.607  42.478  47.885  1.00  0.00     0.263 C 
HETATM    6  O   UNL     1      45.423  43.257  47.865  1.00  0.00    -0.327 OA
HETATM    7  C   UNL     1      44.738  43.203  49.127  1.00  0.00     0.177 C 
BRANCH   3   8
HETATM    8  O   UNL     1      47.849  43.823  51.181  1.00  0.00    -0.380 OA
HETATM    9  H   UNL     1      47.563  44.758  51.126  1.00  0.00     0.211 HD
ENDBRANCH   3   8
BRANCH   4  10
HETATM   10  O   UNL     1      48.750  42.131  48.963  1.00  0.00    -0.378 OA
HETATM   11  H   UNL     1      49.421  42.608  49.488  1.00  0.00     0.211 HD
ENDBRANCH   4  10
BRANCH   5  12
HETATM   12  O   UNL     1      47.212  42.562  46.600  1.00  0.00    -0.359 OA
HETATM   13  H   UNL     1      47.767  41.768  46.526  1.00  0.00     0.213 HD
ENDBRANCH   5  12
BRANCH   7  14
HETATM   14  C   UNL     1      43.421  43.970  48.957  1.00  0.00     0.170 C 
BRANCH  14  15
HETATM   15  O   UNL     1      42.486  43.164  48.241  1.00  0.00    -0.380 OA
HETATM   16  H   UNL     1      42.224  42.453  48.858  1.00  0.00     0.211 HD
ENDBRANCH  14  15
ENDBRANCH   7  14
ENDBRANCH   1   2
BRANCH   1  17
HETATM   17  C   UNL     1      45.267  44.539  52.529  1.00  0.00     0.266 C 
HETATM   18  O   UNL     1      45.879  43.823  53.597  1.00  0.00    -0.326 OA
HETATM   19  C   UNL     1      46.349  44.708  54.639  1.00  0.00     0.176 C 
HETATM   20  C   UNL     1      45.136  45.376  55.305  1.00  0.00     0.170 C 
HETATM   21  C   UNL     1      44.343  46.143  54.228  1.00  0.00     0.172 C 
HETATM   22  C   UNL     1      43.995  45.246  53.034  1.00  0.00     0.197 C 
BRANCH  19  23
HETATM   23  C   UNL     1      47.171  43.864  55.616  1.00  0.00     0.170 C 
BRANCH  23  24
HETATM   24  O   UNL     1      46.629  42.542  55.670  1.00  0.00    -0.380 OA
HETATM   25  H   UNL     1      47.363  41.919  55.487  1.00  0.00     0.211 HD
ENDBRANCH  23  24
ENDBRANCH  19  23
BRANCH  20  26
HETATM   26  O   UNL     1      44.326  44.380  55.944  1.00  0.00    -0.380 OA
HETATM   27  H   UNL     1      44.096  43.695  55.295  1.00  0.00     0.211 HD
ENDBRANCH  20  26
BRANCH  21  28
HETATM   28  O   UNL     1      43.149  46.711  54.770  1.00  0.00    -0.380 OA
HETATM   29  H   UNL     1      42.786  47.290  54.071  1.00  0.00     0.211 HD
ENDBRANCH  21  28
BRANCH  22  30
HETATM   30  O   UNL     1      43.405  46.054  52.004  1.00  0.00    -0.378 OA
HETATM   31  H   UNL     1      44.100  46.679  51.719  1.00  0.00     0.211 HD
ENDBRANCH  22  30
ENDBRANCH   1  17
TORSDOF 12
ENDMDL
MODEL 7
REMARK VINA RESULT:    -5.512      4.133      6.474
REMARK INTER + INTRA:          -9.538
REMARK INTER:                  -8.186
REMARK INTRA:                  -1.352
REMARK UNBOUND:                -1.447
REMARK  12 active torsions:
REMARK  status: ('A' for Active; 'I' for Inactive)
REMARK    1  A    between atoms: O_1  and  C_12 
REMARK    2  A    between atoms: O_1  and  C_14 
REMARK    3  A    between atoms: O_4  and  C_13 
REMARK    4  A    between atoms: O_5  and  C_16 
REMARK    5  A    between atoms: O_6  and  C_17 
REMARK    6  A    between atoms: O_7  and  C_18 
REMARK    7  A    between atoms: O_8  and  C_19 
REMARK    8  A    between atoms: O_9  and  C_21 
REMARK    9  A    between atoms: O_10  and  C_22 
REMARK   10  A    between atoms: O_11  and  C_23 
REMARK   11  A    between atoms: C_15  and  C_22 
REMARK   12  A    between atoms: C_20  and  C_23 
ROOT
HETATM    1  O   UNL     1      44.020  44.487  52.552  1.00  0.00    -0.326 OA
ENDROOT
BRANCH   1   2
HETATM    2  C   UNL     1      44.838  44.578  53.737  1.00  0.00     0.177 C 
HETATM    3  C   UNL     1      45.724  45.841  53.683  1.00  0.00     0.172 C 
HETATM    4  C   UNL     1      46.370  46.142  55.040  1.00  0.00     0.197 C 
HETATM    5  C   UNL     1      45.327  46.086  56.166  1.00  0.00     0.263 C 
HETATM    6  O   UNL     1      44.638  44.848  56.172  1.00  0.00    -0.327 OA
HETATM    7  C   UNL     1      43.900  44.652  54.954  1.00  0.00     0.177 C 
BRANCH   3   8
HETATM    8  O   UNL     1      46.766  45.663  52.706  1.00  0.00    -0.380 OA
HETATM    9  H   UNL     1      47.316  44.928  53.045  1.00  0.00     0.211 HD
ENDBRANCH   3   8
BRANCH   4  10
HETATM   10  O   UNL     1      46.975  47.447  55.024  1.00  0.00    -0.378 OA
HETATM   11  H   UNL     1      47.921  47.293  55.210  1.00  0.00     0.211 HD
ENDBRANCH   4  10
BRANCH   5  12
HETATM   12  O   UNL     1      46.010  46.216  57.408  1.00  0.00    -0.359 OA
HETATM   13  H   UNL     1      45.572  45.590  58.007  1.00  0.00     0.213 HD
ENDBRANCH   5  12
BRANCH   7  14
HETATM   14  C   UNL     1      43.100  43.354  55.116  1.00  0.00     0.170 C 
BRANCH  14  15
HETATM   15  O   UNL     1      41.898  43.434  54.350  1.00  0.00    -0.380 OA
HETATM   16  H   UNL     1      41.387  44.171  54.736  1.00  0.00     0.211 HD
ENDBRANCH  14  15
ENDBRANCH   7  14
ENDBRANCH   1   2
BRANCH   1  17
HETATM   17  C   UNL     1      44.468  43.502  51.611  1.00  0.00     0.266 C 
HETATM   18  O   UNL     1      45.858  43.263  51.798  1.00  0.00    -0.326 OA
HETATM   19  C   UNL     1      46.351  42.227  50.918  1.00  0.00     0.176 C 
HETATM   20  C   UNL     1      46.266  42.728  49.468  1.00  0.00     0.170 C 
HETATM   21  C   UNL     1      44.799  43.085  49.156  1.00  0.00     0.172 C 
HETATM   22  C   UNL     1      44.217  44.052  50.194  1.00  0.00     0.197 C 
BRANCH  19  23
HETATM   23  C   UNL     1      47.783  41.905  51.350  1.00  0.00     0.170 C 
BRANCH  23  24
HETATM   24  O   UNL     1      48.377  43.073  51.924  1.00  0.00    -0.380 OA
HETATM   25  H   UNL     1      49.340  43.023  51.752  1.00  0.00     0.211 HD
ENDBRANCH  23  24
ENDBRANCH  19  23
BRANCH  20  26
HETATM   26  O   UNL     1      47.130  43.860  49.296  1.00  0.00    -0.380 OA
HETATM   27  H   UNL     1      47.224  44.319  50.147  1.00  0.00     0.211 HD
ENDBRANCH  20  26
BRANCH  21  28
HETATM   28  O   UNL     1      44.669  43.646  47.847  1.00  0.00    -0.380 OA
HETATM   29  H   UNL     1      45.502  44.128  47.678  1.00  0.00     0.211 HD
ENDBRANCH  21  28
BRANCH  22  30
HETATM   30  O   UNL     1      42.813  44.214  49.940  1.00  0.00    -0.378 OA
HETATM   31  H   UNL     1      42.429  44.579  50.760  1.00  0.00     0.211 HD
ENDBRANCH  22  30
ENDBRANCH   1  17
TORSDOF 12
ENDMDL
MODEL 8
REMARK VINA RESULT:    -5.232      3.406      7.944
REMARK INTER + INTRA:          -9.126
REMARK INTER:                  -8.925
REMARK INTRA:                  -0.202
REMARK UNBOUND:                -1.447
REMARK  12 active torsions:
REMARK  status: ('A' for Active; 'I' for Inactive)
REMARK    1  A    between atoms: O_1  and  C_12 
REMARK    2  A    between atoms: O_1  and  C_14 
REMARK    3  A    between atoms: O_4  and  C_13 
REMARK    4  A    between atoms: O_5  and  C_16 
REMARK    5  A    between atoms: O_6  and  C_17 
REMARK    6  A    between atoms: O_7  and  C_18 
REMARK    7  A    between atoms: O_8  and  C_19 
REMARK    8  A    between atoms: O_9  and  C_21 
REMARK    9  A    between atoms: O_10  and  C_22 
REMARK   10  A    between atoms: O_11  and  C_23 
REMARK   11  A    between atoms: C_15  and  C_22 
REMARK   12  A    between atoms: C_20  and  C_23 
ROOT
HETATM    1  O   UNL     1      45.973  43.314  51.463  1.00  0.00    -0.326 OA
ENDROOT
BRANCH   1   2
HETATM    2  C   UNL     1      45.319  43.055  50.204  1.00  0.00     0.177 C 
HETATM    3  C   UNL     1      44.036  43.905  50.080  1.00  0.00     0.172 C 
HETATM    4  C   UNL     1      43.483  43.899  48.650  1.00  0.00     0.197 C 
HETATM    5  C   UNL     1      44.596  44.190  47.633  1.00  0.00     0.263 C 
HETATM    6  O   UNL     1      45.683  43.294  47.784  1.00  0.00    -0.327 OA
HETATM    7  C   UNL     1      46.298  43.426  49.076  1.00  0.00     0.177 C 
BRANCH   3   8
HETATM    8  O   UNL     1      43.025  43.391  50.967  1.00  0.00    -0.380 OA
HETATM    9  H   UNL     1      42.348  44.096  51.026  1.00  0.00     0.211 HD
ENDBRANCH   3   8
BRANCH   4  10
HETATM   10  O   UNL     1      42.449  44.889  48.513  1.00  0.00    -0.378 OA
HETATM   11  H   UNL     1      41.610  44.403  48.629  1.00  0.00     0.211 HD
ENDBRANCH   4  10
BRANCH   5  12
HETATM   12  O   UNL     1      44.059  44.016  46.328  1.00  0.00    -0.359 OA
HETATM   13  H   UNL     1      44.763  43.584  45.817  1.00  0.00     0.213 HD
ENDBRANCH   5  12
BRANCH   7  14
HETATM   14  C   UNL     1      47.526  42.508  49.086  1.00  0.00     0.170 C 
BRANCH  14  15
HETATM   15  O   UNL     1      47.332  41.438  48.162  1.00  0.00    -0.380 OA
HETATM   16  H   UNL     1      47.515  40.620  48.663  1.00  0.00     0.211 HD
ENDBRANCH  14  15
ENDBRANCH   7  14
ENDBRANCH   1   2
BRANCH   1  17
HETATM   17  C   UNL     1      45.096  43.810  52.482  1.00  0.00     0.266 C 
HETATM   18  O   UNL     1      45.624  45.019  53.017  1.00  0.00    -0.326 OA
HETATM   19  C   UNL     1      44.744  45.601  54.006  1.00  0.00     0.176 C 
HETATM   20  C   UNL     1      44.684  44.668  55.224  1.00  0.00     0.170 C 
HETATM   21  C   UNL     1      44.179  43.286  54.762  1.00  0.00     0.172 C 
HETATM   22  C   UNL     1      45.005  42.743  53.590  1.00  0.00     0.197 C 
BRANCH  19  23
HETATM   23  C   UNL     1      45.297  46.987  54.348  1.00  0.00     0.170 C 
BRANCH  23  24
HETATM   24  O   UNL     1      46.726  46.940  54.339  1.00  0.00    -0.380 OA
HETATM   25  H   UNL     1      47.038  47.683  53.782  1.00  0.00     0.211 HD
ENDBRANCH  23  24
ENDBRANCH  19  23
BRANCH  20  26
HETATM   26  O   UNL     1      45.981  44.577  55.829  1.00  0.00    -0.380 OA
HETATM   27  H   UNL     1      46.141  43.658  56.100  1.00  0.00     0.211 HD
ENDBRANCH  20  26
BRANCH  21  28
HETATM   28  O   UNL     1      44.189  42.344  55.837  1.00  0.00    -0.380 OA
HETATM   29  H   UNL     1      44.167  42.873  56.658  1.00  0.00     0.211 HD
ENDBRANCH  21  28
BRANCH  22  30
HETATM   30  O   UNL     1      44.388  41.541  53.106  1.00  0.00    -0.378 OA
HETATM   31  H   UNL     1      43.531  41.812  52.722  1.00  0.00     0.211 HD
ENDBRANCH  22  30
ENDBRANCH   1  17
TORSDOF 12
ENDMDL
MODEL 9
REMARK VINA RESULT:    -5.097      4.631      8.983
REMARK INTER + INTRA:          -8.928
REMARK INTER:                  -7.573
REMARK INTRA:                  -1.355
REMARK UNBOUND:                -1.447
REMARK  12 active torsions:
REMARK  status: ('A' for Active; 'I' for Inactive)
REMARK    1  A    between atoms: O_1  and  C_12 
REMARK    2  A    between atoms: O_1  and  C_14 
REMARK    3  A    between atoms: O_4  and  C_13 
REMARK    4  A    between atoms: O_5  and  C_16 
REMARK    5  A    between atoms: O_6  and  C_17 
REMARK    6  A    between atoms: O_7  and  C_18 
REMARK    7  A    between atoms: O_8  and  C_19 
REMARK    8  A    between atoms: O_9  and  C_21 
REMARK    9  A    between atoms: O_10  and  C_22 
REMARK   10  A    between atoms: O_11  and  C_23 
REMARK   11  A    between atoms: C_15  and  C_22 
REMARK   12  A    between atoms: C_20  and  C_23 
ROOT
HETATM    1  O   UNL     1      46.495  44.600  53.120  1.00  0.00    -0.326 OA
ENDROOT
BRANCH   1   2
HETATM    2  C   UNL     1      45.596  43.888  52.245  1.00  0.00     0.177 C 
HETATM    3  C   UNL     1      44.428  44.802  51.815  1.00  0.00     0.172 C 
HETATM    4  C   UNL     1      43.629  44.197  50.655  1.00  0.00     0.197 C 
HETATM    5  C   UNL     1      44.566  43.716  49.538  1.00  0.00     0.263 C 
HETATM    6  O   UNL     1      45.542  42.816  50.034  1.00  0.00    -0.327 OA
HETATM    7  C   UNL     1      46.393  43.446  51.005  1.00  0.00     0.177 C 
BRANCH   3   8
HETATM    8  O   UNL     1      43.538  45.010  52.928  1.00  0.00    -0.380 OA
HETATM    9  H   UNL     1      43.496  45.980  53.049  1.00  0.00     0.211 HD
ENDBRANCH   3   8
BRANCH   4  10
HETATM   10  O   UNL     1      42.718  45.173  50.118  1.00  0.00    -0.378 OA
HETATM   11  H   UNL     1      41.905  45.086  50.650  1.00  0.00     0.211 HD
ENDBRANCH   4  10
BRANCH   5  12
HETATM   12  O   UNL     1      43.784  43.028  48.569  1.00  0.00    -0.359 OA
HETATM   13  H   UNL     1      43.812  42.094  48.834  1.00  0.00     0.213 HD
ENDBRANCH   5  12
BRANCH   7  14
HETATM   14  C   UNL     1      47.479  42.430  51.380  1.00  0.00     0.170 C 
BRANCH  14  15
HETATM   15  O   UNL     1      47.035  41.639  52.482  1.00  0.00    -0.380 OA
HETATM   16  H   UNL     1      46.754  40.786  52.099  1.00  0.00     0.211 HD
ENDBRANCH  14  15
ENDBRANCH   7  14
ENDBRANCH   1   2
BRANCH   1  17
HETATM   17  C   UNL     1      46.373  44.235  54.501  1.00  0.00     0.266 C 
HETATM   18  O   UNL     1      45.278  43.340  54.661  1.00  0.00    -0.326 OA
HETATM   19  C   UNL     1      45.150  42.884  56.027  1.00  0.00     0.176 C 
HETATM   20  C   UNL     1      44.767  44.079  56.913  1.00  0.00     0.170 C 
HETATM   21  C   UNL     1      45.857  45.161  56.778  1.00  0.00     0.172 C 
HETATM   22  C   UNL     1      46.122  45.521  55.311  1.00  0.00     0.197 C 
BRANCH  19  23
HETATM   23  C   UNL     1      44.095  41.775  56.040  1.00  0.00     0.170 C 
BRANCH  23  24
HETATM   24  O   UNL     1      43.399  41.800  57.289  1.00  0.00    -0.380 OA
HETATM   25  H   UNL     1      44.059  41.624  57.993  1.00  0.00     0.211 HD
ENDBRANCH  23  24
ENDBRANCH  19  23
BRANCH  20  26
HETATM   26  O   UNL     1      43.480  44.579  56.522  1.00  0.00    -0.380 OA
HETATM   27  H   UNL     1      43.538  44.927  55.616  1.00  0.00     0.211 HD
ENDBRANCH  20  26
BRANCH  21  28
HETATM   28  O   UNL     1      45.510  46.340  57.509  1.00  0.00    -0.380 OA
HETATM   29  H   UNL     1      45.148  46.967  56.853  1.00  0.00     0.211 HD
ENDBRANCH  21  28
BRANCH  22  30
HETATM   30  O   UNL     1      47.250  46.406  55.247  1.00  0.00    -0.378 OA
HETATM   31  H   UNL     1      47.956  45.983  55.773  1.00  0.00     0.211 HD
ENDBRANCH  22  30
ENDBRANCH   1  17
TORSDOF 12
ENDMDL
MODEL 10
REMARK VINA RESULT:    -4.954      4.258      8.565
REMARK INTER + INTRA:          -8.718
REMARK INTER:                  -7.280
REMARK INTRA:                  -1.438
REMARK UNBOUND:                -1.447
REMARK  12 active torsions:
REMARK  status: ('A' for Active; 'I' for Inactive)
REMARK    1  A    between atoms: O_1  and  C_12 
REMARK    2  A    between atoms: O_1  and  C_14 
REMARK    3  A    between atoms: O_4  and  C_13 
REMARK    4  A    between atoms: O_5  and  C_16 
REMARK    5  A    between atoms: O_6  and  C_17 
REMARK    6  A    between atoms: O_7  and  C_18 
REMARK    7  A    between atoms: O_8  and  C_19 
REMARK    8  A    between atoms: O_9  and  C_21 
REMARK    9  A    between atoms: O_10  and  C_22 
REMARK   10  A    between atoms: O_11  and  C_23 
REMARK   11  A    between atoms: C_15  and  C_22 
REMARK   12  A    between atoms: C_20  and  C_23 
ROOT
HETATM    1  O   UNL     1      44.864  42.916  53.070  1.00  0.00    -0.326 OA
ENDROOT
BRANCH   1   2
HETATM    2  C   UNL     1      45.448  43.715  52.020  1.00  0.00     0.177 C 
HETATM    3  C   UNL     1      46.852  43.185  51.659  1.00  0.00     0.172 C 
HETATM    4  C   UNL     1      47.375  43.799  50.354  1.00  0.00     0.197 C 
HETATM    5  C   UNL     1      46.310  43.724  49.250  1.00  0.00     0.263 C 
HETATM    6  O   UNL     1      45.092  44.318  49.664  1.00  0.00    -0.327 OA
HETATM    7  C   UNL     1      44.527  43.628  50.791  1.00  0.00     0.177 C 
BRANCH   3   8
HETATM    8  O   UNL     1      47.777  43.496  52.717  1.00  0.00    -0.380 OA
HETATM    9  H   UNL     1      48.636  43.649  52.274  1.00  0.00     0.211 HD
ENDBRANCH   3   8
BRANCH   4  10
HETATM   10  O   UNL     1      48.556  43.105  49.918  1.00  0.00    -0.378 OA
HETATM   11  H   UNL     1      48.380  42.857  48.990  1.00  0.00     0.211 HD
ENDBRANCH   4  10
BRANCH   5  12
HETATM   12  O   UNL     1      46.791  44.444  48.122  1.00  0.00    -0.359 OA
HETATM   13  H   UNL     1      46.327  45.296  48.145  1.00  0.00     0.213 HD
ENDBRANCH   5  12
BRANCH   7  14
HETATM   14  C   UNL     1      43.164  44.271  51.074  1.00  0.00     0.170 C 
BRANCH  14  15
HETATM   15  O   UNL     1      43.334  45.392  51.942  1.00  0.00    -0.380 OA
HETATM   16  H   UNL     1      42.772  46.100  51.572  1.00  0.00     0.211 HD
ENDBRANCH  14  15
ENDBRANCH   7  14
ENDBRANCH   1   2
BRANCH   1  17
HETATM   17  C   UNL     1      44.850  43.560  54.351  1.00  0.00     0.266 C 
HETATM   18  O   UNL     1      45.455  44.843  54.245  1.00  0.00    -0.326 OA
HETATM   19  C   UNL     1      45.408  45.567  55.496  1.00  0.00     0.176 C 
HETATM   20  C   UNL     1      46.291  44.839  56.521  1.00  0.00     0.170 C 
HETATM   21  C   UNL     1      45.771  43.396  56.683  1.00  0.00     0.172 C 
HETATM   22  C   UNL     1      45.652  42.682  55.331  1.00  0.00     0.197 C 
BRANCH  19  23
HETATM   23  C   UNL     1      45.882  46.995  55.215  1.00  0.00     0.170 C 
BRANCH  23  24
HETATM   24  O   UNL     1      46.997  46.955  54.321  1.00  0.00    -0.380 OA
HETATM   25  H   UNL     1      46.912  47.720  53.715  1.00  0.00     0.211 HD
ENDBRANCH  23  24
ENDBRANCH  19  23
BRANCH  20  26
HETATM   26  O   UNL     1      47.657  44.859  56.084  1.00  0.00    -0.380 OA
HETATM   27  H   UNL     1      48.162  44.203  56.593  1.00  0.00     0.211 HD
ENDBRANCH  20  26
BRANCH  21  28
HETATM   28  O   UNL     1      46.610  42.637  57.557  1.00  0.00    -0.380 OA
HETATM   29  H   UNL     1      46.917  43.261  58.244  1.00  0.00     0.211 HD
ENDBRANCH  21  28
BRANCH  22  30
HETATM   30  O   UNL     1      45.014  41.411  55.533  1.00  0.00    -0.378 OA
HETATM   31  H   UNL     1      45.472  40.781  54.944  1.00  0.00     0.211 HD
ENDBRANCH  22  30
ENDBRANCH   1  17
TORSDOF 12
ENDMDL
