MODEL 1
REMARK VINA RESULT:    -6.393      0.000      0.000
REMARK INTER + INTRA:         -10.790
REMARK INTER:                  -9.322
REMARK INTRA:                  -1.468
REMARK UNBOUND:                -1.407
REMARK  12 active torsions:
REMARK  status: ('A' for Active; 'I' for Inactive)
REMARK    1  A    between atoms: O_1  and  C_12 
REMARK    2  A    between atoms: O_1  and  C_14 
REMARK    3  A    between atoms: O_4  and  C_13 
REMARK    4  A    between atoms: O_5  and  C_16 
REMARK    5  A    between atoms: O_6  and  C_17 
REMARK    6  A    between atoms: O_7  and  C_18 
REMARK    7  A    between atoms: O_8  and  C_19 
REMARK    8  A    between atoms: O_9  and  C_21 
REMARK    9  A    between atoms: O_10  and  C_22 
REMARK   10  A    between atoms: O_11  and  C_23 
REMARK   11  A    between atoms: C_15  and  C_22 
REMARK   12  A    between atoms: C_20  and  C_23 
ROOT
HETATM    1  O   UNL     1      45.250  43.003  52.595  1.00  0.00    -0.326 OA
ENDROOT
BRANCH   1   2
HETATM    2  C   UNL     1      44.931  43.873  53.701  1.00  0.00     0.177 C 
HETATM    3  C   UNL     1      46.123  44.802  54.016  1.00  0.00     0.172 C 
HETATM    4  C   UNL     1      45.724  45.940  54.963  1.00  0.00     0.197 C 
HETATM    5  C   UNL     1      44.434  46.622  54.485  1.00  0.00     0.263 C 
HETATM    6  O   UNL     1      43.385  45.684  54.313  1.00  0.00    -0.327 OA
HETATM    7  C   UNL     1      43.707  44.716  53.301  1.00  0.00     0.177 C 
BRANCH   3   8
HETATM    8  O   UNL     1      47.182  44.043  54.628  1.00  0.00    -0.380 OA
HETATM    9  H   UNL     1      47.470  43.402  53.947  1.00  0.00     0.211 HD
ENDBRANCH   3   8
BRANCH   4  10
HETATM   10  O   UNL     1      46.776  46.918  55.034  1.00  0.00    -0.378 OA
HETATM   11  H   UNL     1      46.475  47.571  55.696  1.00  0.00     0.211 HD
ENDBRANCH   4  10
BRANCH   5  12
HETATM   12  O   UNL     1      44.032  47.556  55.480  1.00  0.00    -0.359 OA
HETATM   13  H   UNL     1      44.349  47.187  56.320  1.00  0.00     0.213 HD
ENDBRANCH   5  12
BRANCH   7  14
HETATM   14  C   UNL     1      42.466  43.834  53.112  1.00  0.00     0.170 C 
BRANCH  14  15
HETATM   15  O   UNL     1      42.237  43.625  51.719  1.00  0.00    -0.380 OA
HETATM   16  H   UNL     1      41.711  44.391  51.419  1.00  0.00     0.211 HD
ENDBRANCH  14  15
ENDBRANCH   7  14
ENDBRANCH   1   2
BRANCH   1  17
HETATM   17  C   UNL     1      45.669  43.697  51.413  1.00  0.00     0.266 C 
HETATM   18  O   UNL     1      44.696  43.524  50.389  1.00  0.00    -0.326 OA
HETATM   19  C   UNL     1      45.036  44.260  49.191  1.00  0.00     0.176 C 
HETATM   20  C   UNL     1      46.308  43.651  48.582  1.00  0.00     0.170 C 
HETATM   21  C   UNL     1      47.438  43.722  49.628  1.00  0.00     0.172 C 
HETATM   22  C   UNL     1      47.015  43.097  50.963  1.00  0.00     0.197 C 
BRANCH  19  23
HETATM   23  C   UNL     1      43.832  44.180  48.250  1.00  0.00     0.170 C 
BRANCH  23  24
HETATM   24  O   UNL     1      42.950  43.147  48.699  1.00  0.00    -0.380 OA
HETATM   25  H   UNL     1      43.229  42.900  49.605  1.00  0.00     0.211 HD
ENDBRANCH  23  24
ENDBRANCH  19  23
BRANCH  20  26
HETATM   26  O   UNL     1      46.052  42.300  48.176  1.00  0.00    -0.380 OA
HETATM   27  H   UNL     1      45.387  42.303  47.468  1.00  0.00     0.211 HD
ENDBRANCH  20  26
BRANCH  21  28
HETATM   28  O   UNL     1      48.627  43.086  49.152  1.00  0.00    -0.380 OA
HETATM   29  H   UNL     1      49.070  43.739  48.577  1.00  0.00     0.211 HD
ENDBRANCH  21  28
BRANCH  22  30
HETATM   30  O   UNL     1      48.044  43.339  51.935  1.00  0.00    -0.378 OA
HETATM   31  H   UNL     1      48.082  42.539  52.494  1.00  0.00     0.211 HD
ENDBRANCH  22  30
ENDBRANCH   1  17
TORSDOF 12
ENDMDL
MODEL 2
REMARK VINA RESULT:    -6.192      1.862      6.317
REMARK INTER + INTRA:         -10.495
REMARK INTER:                  -9.567
REMARK INTRA:                  -0.928
REMARK UNBOUND:                -1.407
REMARK  12 active torsions:
REMARK  status: ('A' for Active; 'I' for Inactive)
REMARK    1  A    between atoms: O_1  and  C_12 
REMARK    2  A    between atoms: O_1  and  C_14 
REMARK    3  A    between atoms: O_4  and  C_13 
REMARK    4  A    between atoms: O_5  and  C_16 
REMARK    5  A    between atoms: O_6  and  C_17 
REMARK    6  A    between atoms: O_7  and  C_18 
REMARK    7  A    between atoms: O_8  and  C_19 
REMARK    8  A    between atoms: O_9  and  C_21 
REMARK    9  A    between atoms: O_10  and  C_22 
REMARK   10  A    between atoms: O_11  and  C_23 
REMARK   11  A    between atoms: C_15  and  C_22 
REMARK   12  A    between atoms: C_20  and  C_23 
ROOT
HETATM    1  O   UNL     1      45.016  45.026  52.134  1.00  0.00    -0.326 OA
ENDROOT
BRANCH   1   2
HETATM    2  C   UNL     1      45.036  44.155  50.984  1.00  0.00     0.177 C 
HETATM    3  C   UNL     1      43.671  44.184  50.264  1.00  0.00     0.172 C 
HETATM    4  C   UNL     1      43.743  43.528  48.880  1.00  0.00     0.197 C 
HETATM    5  C   UNL     1      44.946  44.058  48.086  1.00  0.00     0.263 C 
HETATM    6  O   UNL     1      46.154  43.900  48.810  1.00  0.00    -0.327 OA
HETATM    7  C   UNL     1      46.137  44.655  50.032  1.00  0.00     0.177 C 
BRANCH   3   8
HETATM    8  O   UNL     1      42.690  43.487  51.053  1.00  0.00    -0.380 OA
HETATM    9  H   UNL     1      41.855  43.554  50.547  1.00  0.00     0.211 HD
ENDBRANCH   3   8
BRANCH   4  10
HETATM   10  O   UNL     1      42.538  43.793  48.141  1.00  0.00    -0.378 OA
HETATM   11  H   UNL     1      42.509  43.112  47.443  1.00  0.00     0.211 HD
ENDBRANCH   4  10
BRANCH   5  12
HETATM   12  O   UNL     1      45.050  43.304  46.885  1.00  0.00    -0.359 OA
HETATM   13  H   UNL     1      44.169  43.348  46.477  1.00  0.00     0.213 HD
ENDBRANCH   5  12
BRANCH   7  14
HETATM   14  C   UNL     1      47.525  44.513  50.668  1.00  0.00     0.170 C 
BRANCH  14  15
HETATM   15  O   UNL     1      48.415  43.893  49.741  1.00  0.00    -0.380 OA
HETATM   16  H   UNL     1      47.867  43.649  48.970  1.00  0.00     0.211 HD
ENDBRANCH  14  15
ENDBRANCH   7  14
ENDBRANCH   1   2
BRANCH   1  17
HETATM   17  C   UNL     1      45.313  44.363  53.370  1.00  0.00     0.266 C 
HETATM   18  O   UNL     1      44.202  43.565  53.761  1.00  0.00    -0.326 OA
HETATM   19  C   UNL     1      44.472  42.819  54.970  1.00  0.00     0.176 C 
HETATM   20  C   UNL     1      44.631  43.807  56.135  1.00  0.00     0.170 C 
HETATM   21  C   UNL     1      45.779  44.780  55.803  1.00  0.00     0.172 C 
HETATM   22  C   UNL     1      45.583  45.443  54.435  1.00  0.00     0.197 C 
BRANCH  19  23
HETATM   23  C   UNL     1      43.310  41.845  55.174  1.00  0.00     0.170 C 
BRANCH  23  24
HETATM   24  O   UNL     1      43.005  41.758  56.568  1.00  0.00    -0.380 OA
HETATM   25  H   UNL     1      43.856  41.700  57.049  1.00  0.00     0.211 HD
ENDBRANCH  23  24
ENDBRANCH  19  23
BRANCH  20  26
HETATM   26  O   UNL     1      43.396  44.505  56.349  1.00  0.00    -0.380 OA
HETATM   27  H   UNL     1      43.571  45.461  56.361  1.00  0.00     0.211 HD
ENDBRANCH  20  26
BRANCH  21  28
HETATM   28  O   UNL     1      45.916  45.785  56.811  1.00  0.00    -0.380 OA
HETATM   29  H   UNL     1      45.277  46.487  56.580  1.00  0.00     0.211 HD
ENDBRANCH  21  28
BRANCH  22  30
HETATM   30  O   UNL     1      46.757  46.206  54.117  1.00  0.00    -0.378 OA
HETATM   31  H   UNL     1      46.917  46.789  54.884  1.00  0.00     0.211 HD
ENDBRANCH  22  30
ENDBRANCH   1  17
TORSDOF 12
ENDMDL
MODEL 3
REMARK VINA RESULT:    -6.063      1.863      6.126
REMARK INTER + INTRA:         -10.306
REMARK INTER:                  -8.899
REMARK INTRA:                  -1.407
REMARK UNBOUND:                -1.407
REMARK  12 active torsions:
REMARK  status: ('A' for Active; 'I' for Inactive)
REMARK    1  A    between atoms: O_1  and  C_12 
REMARK    2  A    between atoms: O_1  and  C_14 
REMARK    3  A    between atoms: O_4  and  C_13 
REMARK    4  A    between atoms: O_5  and  C_16 
REMARK    5  A    between atoms: O_6  and  C_17 
REMARK    6  A    between atoms: O_7  and  C_18 
REMARK    7  A    between atoms: O_8  and  C_19 
REMARK    8  A    between atoms: O_9  and  C_21 
REMARK    9  A    between atoms: O_10  and  C_22 
REMARK   10  A    between atoms: O_11  and  C_23 
REMARK   11  A    between atoms: C_15  and  C_22 
REMARK   12  A    between atoms: C_20  and  C_23 
ROOT
HETATM    1  O   UNL     1      45.814  43.758  50.485  1.00  0.00    -0.326 OA
ENDROOT
BRANCH   1   2
HETATM    2  C   UNL     1      45.171  43.350  49.260  1.00  0.00     0.177 C 
HETATM    3  C   UNL     1      43.979  44.279  48.943  1.00  0.00     0.172 C 
HETATM    4  C   UNL     1      43.466  44.080  47.512  1.00  0.00     0.197 C 
HETATM    5  C   UNL     1      44.628  44.092  46.508  1.00  0.00     0.263 C 
HETATM    6  O   UNL     1      45.619  43.140  46.852  1.00  0.00    -0.327 OA
HETATM    7  C   UNL     1      46.210  43.434  48.129  1.00  0.00     0.177 C 
BRANCH   3   8
HETATM    8  O   UNL     1      42.901  44.017  49.859  1.00  0.00    -0.380 OA
HETATM    9  H   UNL     1      42.337  43.352  49.414  1.00  0.00     0.211 HD
ENDBRANCH   3   8
BRANCH   4  10
HETATM   10  O   UNL     1      42.536  45.123  47.168  1.00  0.00    -0.378 OA
HETATM   11  H   UNL     1      41.830  45.069  47.840  1.00  0.00     0.211 HD
ENDBRANCH   4  10
BRANCH   5  12
HETATM   12  O   UNL     1      44.111  43.749  45.228  1.00  0.00    -0.359 OA
HETATM   13  H   UNL     1      44.604  44.298  44.597  1.00  0.00     0.213 HD
ENDBRANCH   5  12
BRANCH   7  14
HETATM   14  C   UNL     1      47.343  42.423  48.343  1.00  0.00     0.170 C 
BRANCH  14  15
HETATM   15  O   UNL     1      48.300  42.963  49.255  1.00  0.00    -0.380 OA
HETATM   16  H   UNL     1      48.901  43.512  48.715  1.00  0.00     0.211 HD
ENDBRANCH  14  15
ENDBRANCH   7  14
ENDBRANCH   1   2
BRANCH   1  17
HETATM   17  C   UNL     1      45.369  43.038  51.642  1.00  0.00     0.266 C 
HETATM   18  O   UNL     1      44.325  43.763  52.282  1.00  0.00    -0.326 OA
HETATM   19  C   UNL     1      43.792  43.050  53.421  1.00  0.00     0.176 C 
HETATM   20  C   UNL     1      44.879  42.961  54.502  1.00  0.00     0.170 C 
HETATM   21  C   UNL     1      46.107  42.241  53.908  1.00  0.00     0.172 C 
HETATM   22  C   UNL     1      46.568  42.893  52.599  1.00  0.00     0.197 C 
BRANCH  19  23
HETATM   23  C   UNL     1      42.549  43.808  53.892  1.00  0.00     0.170 C 
BRANCH  23  24
HETATM   24  O   UNL     1      42.620  45.161  53.434  1.00  0.00    -0.380 OA
HETATM   25  H   UNL     1      43.554  45.341  53.200  1.00  0.00     0.211 HD
ENDBRANCH  23  24
ENDBRANCH  19  23
BRANCH  20  26
HETATM   26  O   UNL     1      45.215  44.278  54.961  1.00  0.00    -0.380 OA
HETATM   27  H   UNL     1      44.506  44.600  55.542  1.00  0.00     0.211 HD
ENDBRANCH  20  26
BRANCH  21  28
HETATM   28  O   UNL     1      47.190  42.209  54.840  1.00  0.00    -0.380 OA
HETATM   29  H   UNL     1      46.782  42.183  55.727  1.00  0.00     0.211 HD
ENDBRANCH  21  28
BRANCH  22  30
HETATM   30  O   UNL     1      47.603  42.084  52.018  1.00  0.00    -0.378 OA
HETATM   31  H   UNL     1      47.912  42.565  51.227  1.00  0.00     0.211 HD
ENDBRANCH  22  30
ENDBRANCH   1  17
TORSDOF 12
ENDMDL
MODEL 4
REMARK VINA RESULT:    -5.853      2.204      4.244
REMARK INTER + INTRA:          -9.998
REMARK INTER:                  -8.507
REMARK INTRA:                  -1.491
REMARK UNBOUND:                -1.407
REMARK  12 active torsions:
REMARK  status: ('A' for Active; 'I' for Inactive)
REMARK    1  A    between atoms: O_1  and  C_12 
REMARK    2  A    between atoms: O_1  and  C_14 
REMARK    3  A    between atoms: O_4  and  C_13 
REMARK    4  A    between atoms: O_5  and  C_16 
REMARK    5  A    between atoms: O_6  and  C_17 
REMARK    6  A    between atoms: O_7  and  C_18 
REMARK    7  A    between atoms: O_8  and  C_19 
REMARK    8  A    between atoms: O_9  and  C_21 
REMARK    9  A    between atoms: O_10  and  C_22 
REMARK   10  A    between atoms: O_11  and  C_23 
REMARK   11  A    between atoms: C_15  and  C_22 
REMARK   12  A    between atoms: C_20  and  C_23 
ROOT
HETATM    1  O   UNL     1      44.160  45.131  53.590  1.00  0.00    -0.326 OA
ENDROOT
BRANCH   1   2
HETATM    2  C   UNL     1      44.205  44.782  54.989  1.00  0.00     0.177 C 
HETATM    3  C   UNL     1      43.501  43.428  55.228  1.00  0.00     0.172 C 
HETATM    4  C   UNL     1      43.793  42.873  56.627  1.00  0.00     0.197 C 
HETATM    5  C   UNL     1      45.297  42.926  56.932  1.00  0.00     0.263 C 
HETATM    6  O   UNL     1      45.815  44.234  56.763  1.00  0.00    -0.327 OA
HETATM    7  C   UNL     1      45.683  44.680  55.404  1.00  0.00     0.177 C 
BRANCH   3   8
HETATM    8  O   UNL     1      42.078  43.588  55.083  1.00  0.00    -0.380 OA
HETATM    9  H   UNL     1      41.823  42.994  54.348  1.00  0.00     0.211 HD
ENDBRANCH   3   8
BRANCH   4  10
HETATM   10  O   UNL     1      43.340  41.512  56.726  1.00  0.00    -0.378 OA
HETATM   11  H   UNL     1      43.773  41.154  57.524  1.00  0.00     0.211 HD
ENDBRANCH   4  10
BRANCH   5  12
HETATM   12  O   UNL     1      45.486  42.549  58.291  1.00  0.00    -0.359 OA
HETATM   13  H   UNL     1      44.681  42.065  58.537  1.00  0.00     0.213 HD
ENDBRANCH   5  12
BRANCH   7  14
HETATM   14  C   UNL     1      46.379  46.042  55.307  1.00  0.00     0.170 C 
BRANCH  14  15
HETATM   15  O   UNL     1      46.755  46.293  53.953  1.00  0.00    -0.380 OA
HETATM   16  H   UNL     1      46.564  47.238  53.796  1.00  0.00     0.211 HD
ENDBRANCH  14  15
ENDBRANCH   7  14
ENDBRANCH   1   2
BRANCH   1  17
HETATM   17  C   UNL     1      44.504  44.053  52.711  1.00  0.00     0.266 C 
HETATM   18  O   UNL     1      45.795  44.283  52.158  1.00  0.00    -0.326 OA
HETATM   19  C   UNL     1      46.223  43.191  51.312  1.00  0.00     0.176 C 
HETATM   20  C   UNL     1      45.311  43.135  50.078  1.00  0.00     0.170 C 
HETATM   21  C   UNL     1      43.855  42.947  50.550  1.00  0.00     0.172 C 
HETATM   22  C   UNL     1      43.453  44.005  51.585  1.00  0.00     0.197 C 
BRANCH  19  23
HETATM   23  C   UNL     1      47.690  43.440  50.954  1.00  0.00     0.170 C 
BRANCH  23  24
HETATM   24  O   UNL     1      47.848  44.795  50.527  1.00  0.00    -0.380 OA
HETATM   25  H   UNL     1      46.978  45.098  50.192  1.00  0.00     0.211 HD
ENDBRANCH  23  24
ENDBRANCH  19  23
BRANCH  20  26
HETATM   26  O   UNL     1      45.463  44.335  49.309  1.00  0.00    -0.380 OA
HETATM   27  H   UNL     1      44.638  44.508  48.824  1.00  0.00     0.211 HD
ENDBRANCH  20  26
BRANCH  21  28
HETATM   28  O   UNL     1      42.944  42.981  49.448  1.00  0.00    -0.380 OA
HETATM   29  H   UNL     1      43.257  43.697  48.862  1.00  0.00     0.211 HD
ENDBRANCH  21  28
BRANCH  22  30
HETATM   30  O   UNL     1      42.153  43.680  52.099  1.00  0.00    -0.378 OA
HETATM   31  H   UNL     1      42.305  43.205  52.940  1.00  0.00     0.211 HD
ENDBRANCH  22  30
ENDBRANCH   1  17
TORSDOF 12
ENDMDL
MODEL 5
REMARK VINA RESULT:    -5.751      2.579      6.383
REMARK INTER + INTRA:          -9.847
REMARK INTER:                  -8.365
REMARK INTRA:                  -1.482
REMARK UNBOUND:                -1.407
REMARK  12 active torsions:
REMARK  status: ('A' for Active; 'I' for Inactive)
REMARK    1  A    between atoms: O_1  and  C_12 
REMARK    2  A    between atoms: O_1  and  C_14 
REMARK    3  A    between atoms: O_4  and  C_13 
REMARK    4  A    between atoms: O_5  and  C_16 
REMARK    5  A    between atoms: O_6  and  C_17 
REMARK    6  A    between atoms: O_7  and  C_18 
REMARK    7  A    between atoms: O_8  and  C_19 
REMARK    8  A    between atoms: O_9  and  C_21 
REMARK    9  A    between atoms: O_10  and  C_22 
REMARK   10  A    between atoms: O_11  and  C_23 
REMARK   11  A    between atoms: C_15  and  C_22 
REMARK   12  A    between atoms: C_20  and  C_23 
ROOT
HETATM    1  O   UNL     1      44.768  41.991  51.669  1.00  0.00    -0.326 OA
ENDROOT
BRANCH   1   2
HETATM    2  C   UNL     1      45.581  42.599  50.645  1.00  0.00     0.177 C 
HETATM    3  C   UNL     1      46.529  41.553  50.019  1.00  0.00     0.172 C 
HETATM    4  C   UNL     1      47.181  42.072  48.732  1.00  0.00     0.197 C 
HETATM    5  C   UNL     1      46.129  42.686  47.797  1.00  0.00     0.263 C 
HETATM    6  O   UNL     1      45.378  43.693  48.453  1.00  0.00    -0.327 OA
HETATM    7  C   UNL     1      44.640  43.159  49.564  1.00  0.00     0.177 C 
BRANCH   3   8
HETATM    8  O   UNL     1      47.568  41.216  50.957  1.00  0.00    -0.380 OA
HETATM    9  H   UNL     1      47.601  40.238  50.968  1.00  0.00     0.211 HD
ENDBRANCH   3   8
BRANCH   4  10
HETATM   10  O   UNL     1      47.850  40.999  48.047  1.00  0.00    -0.378 OA
HETATM   11  H   UNL     1      47.379  40.188  48.318  1.00  0.00     0.211 HD
ENDBRANCH   4  10
BRANCH   5  12
HETATM   12  O   UNL     1      46.808  43.286  46.700  1.00  0.00    -0.359 OA
HETATM   13  H   UNL     1      47.742  43.046  46.816  1.00  0.00     0.213 HD
ENDBRANCH   5  12
BRANCH   7  14
HETATM   14  C   UNL     1      43.775  44.297  50.119  1.00  0.00     0.170 C 
BRANCH  14  15
HETATM   15  O   UNL     1      42.601  43.755  50.723  1.00  0.00    -0.380 OA
HETATM   16  H   UNL     1      41.871  44.349  50.463  1.00  0.00     0.211 HD
ENDBRANCH  14  15
ENDBRANCH   7  14
ENDBRANCH   1   2
BRANCH   1  17
HETATM   17  C   UNL     1      45.173  42.322  53.004  1.00  0.00     0.266 C 
HETATM   18  O   UNL     1      45.972  41.270  53.534  1.00  0.00    -0.326 OA
HETATM   19  C   UNL     1      46.464  41.580  54.857  1.00  0.00     0.176 C 
HETATM   20  C   UNL     1      45.273  41.646  55.825  1.00  0.00     0.170 C 
HETATM   21  C   UNL     1      44.289  42.721  55.322  1.00  0.00     0.172 C 
HETATM   22  C   UNL     1      43.900  42.493  53.856  1.00  0.00     0.197 C 
BRANCH  19  23
HETATM   23  C   UNL     1      47.474  40.493  55.234  1.00  0.00     0.170 C 
BRANCH  23  24
HETATM   24  O   UNL     1      47.042  39.241  54.696  1.00  0.00    -0.380 OA
HETATM   25  H   UNL     1      46.832  39.387  53.750  1.00  0.00     0.211 HD
ENDBRANCH  23  24
ENDBRANCH  19  23
BRANCH  20  26
HETATM   26  O   UNL     1      44.647  40.359  55.910  1.00  0.00    -0.380 OA
HETATM   27  H   UNL     1      45.215  39.764  56.426  1.00  0.00     0.211 HD
ENDBRANCH  20  26
BRANCH  21  28
HETATM   28  O   UNL     1      43.112  42.766  56.132  1.00  0.00    -0.380 OA
HETATM   29  H   UNL     1      43.406  43.049  57.019  1.00  0.00     0.211 HD
ENDBRANCH  21  28
BRANCH  22  30
HETATM   30  O   UNL     1      43.118  43.609  53.405  1.00  0.00    -0.378 OA
HETATM   31  H   UNL     1      43.300  44.338  54.030  1.00  0.00     0.211 HD
ENDBRANCH  22  30
ENDBRANCH   1  17
TORSDOF 12
ENDMDL
MODEL 6
REMARK VINA RESULT:    -5.632      1.359      6.190
REMARK INTER + INTRA:          -9.673
REMARK INTER:                  -8.506
REMARK INTRA:                  -1.167
REMARK UNBOUND:                -1.407
REMARK  12 active torsions:
REMARK  status: ('A' for Active; 'I' for Inactive)
REMARK    1  A    between atoms: O_1  and  C_12 
REMARK    2  A    between atoms: O_1  and  C_14 
REMARK    3  A    between atoms: O_4  and  C_13 
REMARK    4  A    between atoms: O_5  and  C_16 
REMARK    5  A    between atoms: O_6  and  C_17 
REMARK    6  A    between atoms: O_7  and  C_18 
REMARK    7  A    between atoms: O_8  and  C_19 
REMARK    8  A    between atoms: O_9  and  C_21 
REMARK    9  A    between atoms: O_10  and  C_22 
REMARK   10  A    between atoms: O_11  and  C_23 
REMARK   11  A    between atoms: C_15  and  C_22 
REMARK   12  A    between atoms: C_20  and  C_23 
ROOT
HETATM    1  O   UNL     1      45.076  43.551  51.738  1.00  0.00    -0.326 OA
ENDROOT
BRANCH   1   2
HETATM    2  C   UNL     1      45.692  43.768  50.453  1.00  0.00     0.177 C 
HETATM    3  C   UNL     1      47.100  43.135  50.417  1.00  0.00     0.172 C 
HETATM    4  C   UNL     1      47.659  43.068  48.991  1.00  0.00     0.197 C 
HETATM    5  C   UNL     1      46.621  42.481  48.024  1.00  0.00     0.263 C 
HETATM    6  O   UNL     1      45.399  43.196  48.080  1.00  0.00    -0.327 OA
HETATM    7  C   UNL     1      44.801  43.113  49.383  1.00  0.00     0.177 C 
BRANCH   3   8
HETATM    8  O   UNL     1      48.002  43.908  51.230  1.00  0.00    -0.380 OA
HETATM    9  H   UNL     1      48.766  44.108  50.652  1.00  0.00     0.211 HD
ENDBRANCH   3   8
BRANCH   4  10
HETATM   10  O   UNL     1      48.845  42.254  48.961  1.00  0.00    -0.378 OA
HETATM   11  H   UNL     1      48.873  41.876  48.061  1.00  0.00     0.211 HD
ENDBRANCH   4  10
BRANCH   5  12
HETATM   12  O   UNL     1      47.136  42.591  46.703  1.00  0.00    -0.359 OA
HETATM   13  H   UNL     1      47.917  42.014  46.683  1.00  0.00     0.213 HD
ENDBRANCH   5  12
BRANCH   7  14
HETATM   14  C   UNL     1      43.437  43.809  49.298  1.00  0.00     0.170 C 
BRANCH  14  15
HETATM   15  O   UNL     1      42.647  43.454  50.433  1.00  0.00    -0.380 OA
HETATM   16  H   UNL     1      41.776  43.875  50.291  1.00  0.00     0.211 HD
ENDBRANCH  14  15
ENDBRANCH   7  14
ENDBRANCH   1   2
BRANCH   1  17
HETATM   17  C   UNL     1      45.401  44.550  52.715  1.00  0.00     0.266 C 
HETATM   18  O   UNL     1      46.011  43.932  53.842  1.00  0.00    -0.326 OA
HETATM   19  C   UNL     1      46.422  44.902  54.833  1.00  0.00     0.176 C 
HETATM   20  C   UNL     1      45.169  45.566  55.423  1.00  0.00     0.170 C 
HETATM   21  C   UNL     1      44.377  46.229  54.278  1.00  0.00     0.172 C 
HETATM   22  C   UNL     1      44.092  45.241  53.140  1.00  0.00     0.197 C 
BRANCH  19  23
HETATM   23  C   UNL     1      47.248  44.157  55.884  1.00  0.00     0.170 C 
BRANCH  23  24
HETATM   24  O   UNL     1      46.749  42.824  56.019  1.00  0.00    -0.380 OA
HETATM   25  H   UNL     1      47.523  42.234  56.131  1.00  0.00     0.211 HD
ENDBRANCH  23  24
ENDBRANCH  19  23
BRANCH  20  26
HETATM   26  O   UNL     1      44.379  44.586  56.109  1.00  0.00    -0.380 OA
HETATM   27  H   UNL     1      44.456  44.731  57.067  1.00  0.00     0.211 HD
ENDBRANCH  20  26
BRANCH  21  28
HETATM   28  O   UNL     1      43.149  46.787  54.752  1.00  0.00    -0.380 OA
HETATM   29  H   UNL     1      42.786  46.138  55.386  1.00  0.00     0.211 HD
ENDBRANCH  21  28
BRANCH  22  30
HETATM   30  O   UNL     1      43.500  45.955  52.044  1.00  0.00    -0.378 OA
HETATM   31  H   UNL     1      44.103  46.698  51.848  1.00  0.00     0.211 HD
ENDBRANCH  22  30
ENDBRANCH   1  17
TORSDOF 12
ENDMDL
MODEL 7
REMARK VINA RESULT:    -5.616      1.579      6.204
REMARK INTER + INTRA:          -9.650
REMARK INTER:                  -9.230
REMARK INTRA:                  -0.420
REMARK UNBOUND:                -1.407
REMARK  12 active torsions:
REMARK  status: ('A' for Active; 'I' for Inactive)
REMARK    1  A    between atoms: O_1  and  C_12 
REMARK    2  A    between atoms: O_1  and  C_14 
REMARK    3  A    between atoms: O_4  and  C_13 
REMARK    4  A    between atoms: O_5  and  C_16 
REMARK    5  A    between atoms: O_6  and  C_17 
REMARK    6  A    between atoms: O_7  and  C_18 
REMARK    7  A    between atoms: O_8  and  C_19 
REMARK    8  A    between atoms: O_9  and  C_21 
REMARK    9  A    between atoms: O_10  and  C_22 
REMARK   10  A    between atoms: O_11  and  C_23 
REMARK   11  A    between atoms: C_15  and  C_22 
REMARK   12  A    between atoms: C_20  and  C_23 
ROOT
HETATM    1  O   UNL     1      45.941  43.434  51.359  1.00  0.00    -0.326 OA
ENDROOT
BRANCH   1   2
HETATM    2  C   UNL     1      45.322  43.172  50.083  1.00  0.00     0.177 C 
HETATM    3  C   UNL     1      43.955  43.884  49.993  1.00  0.00     0.172 C 
HETATM    4  C   UNL     1      43.410  43.891  48.560  1.00  0.00     0.197 C 
HETATM    5  C   UNL     1      44.487  44.353  47.568  1.00  0.00     0.263 C 
HETATM    6  O   UNL     1      45.664  43.572  47.682  1.00  0.00    -0.327 OA
HETATM    7  C   UNL     1      46.258  43.704  48.984  1.00  0.00     0.177 C 
BRANCH   3   8
HETATM    8  O   UNL     1      43.003  43.219  50.844  1.00  0.00    -0.380 OA
HETATM    9  H   UNL     1      42.125  43.535  50.548  1.00  0.00     0.211 HD
ENDBRANCH   3   8
BRANCH   4  10
HETATM   10  O   UNL     1      42.275  44.770  48.465  1.00  0.00    -0.378 OA
HETATM   11  H   UNL     1      42.246  45.052  47.531  1.00  0.00     0.211 HD
ENDBRANCH   4  10
BRANCH   5  12
HETATM   12  O   UNL     1      43.976  44.189  46.251  1.00  0.00    -0.359 OA
HETATM   13  H   UNL     1      44.729  43.886  45.719  1.00  0.00     0.213 HD
ENDBRANCH   5  12
BRANCH   7  14
HETATM   14  C   UNL     1      47.578  42.924  48.958  1.00  0.00     0.170 C 
BRANCH  14  15
HETATM   15  O   UNL     1      48.563  43.626  49.716  1.00  0.00    -0.380 OA
HETATM   16  H   UNL     1      48.614  44.518  49.322  1.00  0.00     0.211 HD
ENDBRANCH  14  15
ENDBRANCH   7  14
ENDBRANCH   1   2
BRANCH   1  17
HETATM   17  C   UNL     1      45.025  43.873  52.371  1.00  0.00     0.266 C 
HETATM   18  O   UNL     1      45.487  45.095  52.934  1.00  0.00    -0.326 OA
HETATM   19  C   UNL     1      44.564  45.620  53.916  1.00  0.00     0.176 C 
HETATM   20  C   UNL     1      44.526  44.664  55.118  1.00  0.00     0.170 C 
HETATM   21  C   UNL     1      44.094  43.269  54.625  1.00  0.00     0.172 C 
HETATM   22  C   UNL     1      44.965  42.784  53.459  1.00  0.00     0.197 C 
BRANCH  19  23
HETATM   23  C   UNL     1      45.047  47.023  54.290  1.00  0.00     0.170 C 
BRANCH  23  24
HETATM   24  O   UNL     1      46.469  47.011  54.433  1.00  0.00    -0.380 OA
HETATM   25  H   UNL     1      46.799  46.202  53.989  1.00  0.00     0.211 HD
ENDBRANCH  23  24
ENDBRANCH  19  23
BRANCH  20  26
HETATM   26  O   UNL     1      45.816  44.623  55.745  1.00  0.00    -0.380 OA
HETATM   27  H   UNL     1      46.498  44.526  55.060  1.00  0.00     0.211 HD
ENDBRANCH  20  26
BRANCH  21  28
HETATM   28  O   UNL     1      44.129  42.310  55.685  1.00  0.00    -0.380 OA
HETATM   29  H   UNL     1      44.455  41.480  55.286  1.00  0.00     0.211 HD
ENDBRANCH  21  28
BRANCH  22  30
HETATM   30  O   UNL     1      44.412  41.563  52.945  1.00  0.00    -0.378 OA
HETATM   31  H   UNL     1      43.441  41.671  52.975  1.00  0.00     0.211 HD
ENDBRANCH  22  30
ENDBRANCH   1  17
TORSDOF 12
ENDMDL
MODEL 8
REMARK VINA RESULT:    -5.611      2.232      5.320
REMARK INTER + INTRA:          -9.642
REMARK INTER:                  -8.276
REMARK INTRA:                  -1.366
REMARK UNBOUND:                -1.407
REMARK  12 active torsions:
REMARK  status: ('A' for Active; 'I' for Inactive)
REMARK    1  A    between atoms: O_1  and  C_12 
REMARK    2  A    between atoms: O_1  and  C_14 
REMARK    3  A    between atoms: O_4  and  C_13 
REMARK    4  A    between atoms: O_5  and  C_16 
REMARK    5  A    between atoms: O_6  and  C_17 
REMARK    6  A    between atoms: O_7  and  C_18 
REMARK    7  A    between atoms: O_8  and  C_19 
REMARK    8  A    between atoms: O_9  and  C_21 
REMARK    9  A    between atoms: O_10  and  C_22 
REMARK   10  A    between atoms: O_11  and  C_23 
REMARK   11  A    between atoms: C_15  and  C_22 
REMARK   12  A    between atoms: C_20  and  C_23 
ROOT
HETATM    1  O   UNL     1      45.587  44.368  52.819  1.00  0.00    -0.326 OA
ENDROOT
BRANCH   1   2
HETATM    2  C   UNL     1      44.920  44.572  51.557  1.00  0.00     0.177 C 
HETATM    3  C   UNL     1      45.674  43.839  50.426  1.00  0.00     0.172 C 
HETATM    4  C   UNL     1      44.843  43.767  49.140  1.00  0.00     0.197 C 
HETATM    5  C   UNL     1      43.417  43.282  49.437  1.00  0.00     0.263 C 
HETATM    6  O   UNL     1      42.793  44.082  50.426  1.00  0.00    -0.327 OA
HETATM    7  C   UNL     1      43.493  44.010  51.679  1.00  0.00     0.177 C 
BRANCH   3   8
HETATM    8  O   UNL     1      46.907  44.524  50.140  1.00  0.00    -0.380 OA
HETATM    9  H   UNL     1      47.273  44.079  49.349  1.00  0.00     0.211 HD
ENDBRANCH   3   8
BRANCH   4  10
HETATM   10  O   UNL     1      45.459  42.870  48.199  1.00  0.00    -0.378 OA
HETATM   11  H   UNL     1      45.544  42.021  48.673  1.00  0.00     0.211 HD
ENDBRANCH   4  10
BRANCH   5  12
HETATM   12  O   UNL     1      42.655  43.386  48.240  1.00  0.00    -0.359 OA
HETATM   13  H   UNL     1      42.019  44.102  48.403  1.00  0.00     0.213 HD
ENDBRANCH   5  12
BRANCH   7  14
HETATM   14  C   UNL     1      42.671  44.805  52.700  1.00  0.00     0.170 C 
BRANCH  14  15
HETATM   15  O   UNL     1      42.237  43.937  53.746  1.00  0.00    -0.380 OA
HETATM   16  H   UNL     1      42.234  43.039  53.361  1.00  0.00     0.211 HD
ENDBRANCH  14  15
ENDBRANCH   7  14
ENDBRANCH   1   2
BRANCH   1  17
HETATM   17  C   UNL     1      45.698  42.991  53.202  1.00  0.00     0.266 C 
HETATM   18  O   UNL     1      44.773  42.712  54.247  1.00  0.00    -0.326 OA
HETATM   19  C   UNL     1      44.794  41.317  54.628  1.00  0.00     0.176 C 
HETATM   20  C   UNL     1      46.156  40.999  55.262  1.00  0.00     0.170 C 
HETATM   21  C   UNL     1      47.264  41.322  54.239  1.00  0.00     0.172 C 
HETATM   22  C   UNL     1      47.136  42.752  53.698  1.00  0.00     0.197 C 
BRANCH  19  23
HETATM   23  C   UNL     1      43.626  41.090  55.590  1.00  0.00     0.170 C 
BRANCH  23  24
HETATM   24  O   UNL     1      43.229  42.342  56.155  1.00  0.00    -0.380 OA
HETATM   25  H   UNL     1      43.691  43.046  55.655  1.00  0.00     0.211 HD
ENDBRANCH  23  24
ENDBRANCH  19  23
BRANCH  20  26
HETATM   26  O   UNL     1      46.318  41.758  56.468  1.00  0.00    -0.380 OA
HETATM   27  H   UNL     1      46.093  41.197  57.228  1.00  0.00     0.211 HD
ENDBRANCH  20  26
BRANCH  21  28
HETATM   28  O   UNL     1      48.563  41.134  54.804  1.00  0.00    -0.380 OA
HETATM   29  H   UNL     1      48.416  40.820  55.718  1.00  0.00     0.211 HD
ENDBRANCH  21  28
BRANCH  22  30
HETATM   30  O   UNL     1      48.089  42.933  52.640  1.00  0.00    -0.378 OA
HETATM   31  H   UNL     1      48.841  42.345  52.849  1.00  0.00     0.211 HD
ENDBRANCH  22  30
ENDBRANCH   1  17
TORSDOF 12
ENDMDL
MODEL 9
REMARK VINA RESULT:    -5.521      2.139      3.666
REMARK INTER + INTRA:          -9.510
REMARK INTER:                  -8.118
REMARK INTRA:                  -1.392
REMARK UNBOUND:                -1.407
REMARK  12 active torsions:
REMARK  status: ('A' for Active; 'I' for Inactive)
REMARK    1  A    between atoms: O_1  and  C_12 
REMARK    2  A    between atoms: O_1  and  C_14 
REMARK    3  A    between atoms: O_4  and  C_13 
REMARK    4  A    between atoms: O_5  and  C_16 
REMARK    5  A    between atoms: O_6  and  C_17 
REMARK    6  A    between atoms: O_7  and  C_18 
REMARK    7  A    between atoms: O_8  and  C_19 
REMARK    8  A    between atoms: O_9  and  C_21 
REMARK    9  A    between atoms: O_10  and  C_22 
REMARK   10  A    between atoms: O_11  and  C_23 
REMARK   11  A    between atoms: C_15  and  C_22 
REMARK   12  A    between atoms: C_20  and  C_23 
ROOT
HETATM    1  O   UNL     1      44.912  43.646  52.459  1.00  0.00    -0.326 OA
ENDROOT
BRANCH   1   2
HETATM    2  C   UNL     1      44.555  42.728  53.512  1.00  0.00     0.177 C 
HETATM    3  C   UNL     1      45.824  42.128  54.155  1.00  0.00     0.172 C 
HETATM    4  C   UNL     1      45.509  41.397  55.466  1.00  0.00     0.197 C 
HETATM    5  C   UNL     1      44.627  42.265  56.376  1.00  0.00     0.263 C 
HETATM    6  O   UNL     1      43.450  42.685  55.708  1.00  0.00    -0.327 OA
HETATM    7  C   UNL     1      43.757  43.509  54.571  1.00  0.00     0.177 C 
BRANCH   3   8
HETATM    8  O   UNL     1      46.436  41.196  53.244  1.00  0.00    -0.380 OA
HETATM    9  H   UNL     1      47.144  40.756  53.759  1.00  0.00     0.211 HD
ENDBRANCH   3   8
BRANCH   4  10
HETATM   10  O   UNL     1      46.727  41.074  56.159  1.00  0.00    -0.378 OA
HETATM   11  H   UNL     1      46.461  40.466  56.875  1.00  0.00     0.211 HD
ENDBRANCH   4  10
BRANCH   5  12
HETATM   12  O   UNL     1      44.241  41.479  57.497  1.00  0.00    -0.359 OA
HETATM   13  H   UNL     1      43.288  41.328  57.388  1.00  0.00     0.213 HD
ENDBRANCH   5  12
BRANCH   7  14
HETATM   14  C   UNL     1      42.422  44.005  54.002  1.00  0.00     0.170 C 
BRANCH  14  15
HETATM   15  O   UNL     1      42.638  45.195  53.244  1.00  0.00    -0.380 OA
HETATM   16  H   UNL     1      43.289  45.718  53.752  1.00  0.00     0.211 HD
ENDBRANCH  14  15
ENDBRANCH   7  14
ENDBRANCH   1   2
BRANCH   1  17
HETATM   17  C   UNL     1      44.950  43.049  51.156  1.00  0.00     0.266 C 
HETATM   18  O   UNL     1      46.298  42.975  50.706  1.00  0.00    -0.326 OA
HETATM   19  C   UNL     1      46.403  42.319  49.422  1.00  0.00     0.176 C 
HETATM   20  C   UNL     1      45.720  43.195  48.362  1.00  0.00     0.170 C 
HETATM   21  C   UNL     1      44.248  43.405  48.770  1.00  0.00     0.172 C 
HETATM   22  C   UNL     1      44.128  43.938  50.203  1.00  0.00     0.197 C 
BRANCH  19  23
HETATM   23  C   UNL     1      47.892  42.102  49.141  1.00  0.00     0.170 C 
BRANCH  23  24
HETATM   24  O   UNL     1      48.638  43.195  49.683  1.00  0.00    -0.380 OA
HETATM   25  H   UNL     1      49.011  43.696  48.928  1.00  0.00     0.211 HD
ENDBRANCH  23  24
ENDBRANCH  19  23
BRANCH  20  26
HETATM   26  O   UNL     1      46.415  44.444  48.244  1.00  0.00    -0.380 OA
HETATM   27  H   UNL     1      46.578  44.628  47.304  1.00  0.00     0.211 HD
ENDBRANCH  20  26
BRANCH  21  28
HETATM   28  O   UNL     1      43.581  44.292  47.868  1.00  0.00    -0.380 OA
HETATM   29  H   UNL     1      44.141  45.091  47.813  1.00  0.00     0.211 HD
ENDBRANCH  21  28
BRANCH  22  30
HETATM   30  O   UNL     1      42.741  43.956  50.575  1.00  0.00    -0.378 OA
HETATM   31  H   UNL     1      42.395  44.823  50.288  1.00  0.00     0.211 HD
ENDBRANCH  22  30
ENDBRANCH   1  17
TORSDOF 12
ENDMDL
MODEL 10
REMARK VINA RESULT:    -5.426      1.727      3.015
REMARK INTER + INTRA:          -9.371
REMARK INTER:                  -8.271
REMARK INTRA:                  -1.100
REMARK UNBOUND:                -1.407
REMARK  12 active torsions:
REMARK  status: ('A' for Active; 'I' for Inactive)
REMARK    1  A    between atoms: O_1  and  C_12 
REMARK    2  A    between atoms: O_1  and  C_14 
REMARK    3  A    between atoms: O_4  and  C_13 
REMARK    4  A    between atoms: O_5  and  C_16 
REMARK    5  A    between atoms: O_6  and  C_17 
REMARK    6  A    between atoms: O_7  and  C_18 
REMARK    7  A    between atoms: O_8  and  C_19 
REMARK    8  A    between atoms: O_9  and  C_21 
REMARK    9  A    between atoms: O_10  and  C_22 
REMARK   10  A    between atoms: O_11  and  C_23 
REMARK   11  A    between atoms: C_15  and  C_22 
REMARK   12  A    between atoms: C_20  and  C_23 
ROOT
HETATM    1  O   UNL     1      43.824  44.571  52.438  1.00  0.00    -0.326 OA
ENDROOT
BRANCH   1   2
HETATM    2  C   UNL     1      44.400  44.438  53.753  1.00  0.00     0.177 C 
HETATM    3  C   UNL     1      45.290  45.658  54.077  1.00  0.00     0.172 C 
HETATM    4  C   UNL     1      45.667  45.710  55.562  1.00  0.00     0.197 C 
HETATM    5  C   UNL     1      44.427  45.514  56.448  1.00  0.00     0.263 C 
HETATM    6  O   UNL     1      43.740  44.320  56.118  1.00  0.00    -0.327 OA
HETATM    7  C   UNL     1      43.247  44.352  54.769  1.00  0.00     0.177 C 
BRANCH   3   8
HETATM    8  O   UNL     1      46.498  45.598  53.297  1.00  0.00    -0.380 OA
HETATM    9  H   UNL     1      47.226  45.538  53.950  1.00  0.00     0.211 HD
ENDBRANCH   3   8
BRANCH   4  10
HETATM   10  O   UNL     1      46.274  46.976  55.876  1.00  0.00    -0.378 OA
HETATM   11  H   UNL     1      47.079  46.756  56.383  1.00  0.00     0.211 HD
ENDBRANCH   4  10
BRANCH   5  12
HETATM   12  O   UNL     1      44.860  45.416  57.799  1.00  0.00    -0.359 OA
HETATM   13  H   UNL     1      44.443  46.164  58.256  1.00  0.00     0.213 HD
ENDBRANCH   5  12
BRANCH   7  14
HETATM   14  C   UNL     1      42.421  43.077  54.561  1.00  0.00     0.170 C 
BRANCH  14  15
HETATM   15  O   UNL     1      41.295  43.087  55.438  1.00  0.00    -0.380 OA
HETATM   16  H   UNL     1      41.150  42.156  55.693  1.00  0.00     0.211 HD
ENDBRANCH  14  15
ENDBRANCH   7  14
ENDBRANCH   1   2
BRANCH   1  17
HETATM   17  C   UNL     1      44.380  43.675  51.467  1.00  0.00     0.266 C 
HETATM   18  O   UNL     1      45.752  43.442  51.764  1.00  0.00    -0.326 OA
HETATM   19  C   UNL     1      46.348  42.490  50.853  1.00  0.00     0.176 C 
HETATM   20  C   UNL     1      46.387  43.110  49.448  1.00  0.00     0.170 C 
HETATM   21  C   UNL     1      44.948  43.469  49.028  1.00  0.00     0.172 C 
HETATM   22  C   UNL     1      44.249  44.338  50.082  1.00  0.00     0.197 C 
BRANCH  19  23
HETATM   23  C   UNL     1      47.740  42.155  51.392  1.00  0.00     0.170 C 
BRANCH  23  24
HETATM   24  O   UNL     1      48.320  43.329  51.966  1.00  0.00    -0.380 OA
HETATM   25  H   UNL     1      47.945  43.428  52.867  1.00  0.00     0.211 HD
ENDBRANCH  23  24
ENDBRANCH  19  23
BRANCH  20  26
HETATM   26  O   UNL     1      47.237  44.265  49.452  1.00  0.00    -0.380 OA
HETATM   27  H   UNL     1      46.690  45.060  49.558  1.00  0.00     0.211 HD
ENDBRANCH  20  26
BRANCH  21  28
HETATM   28  O   UNL     1      44.928  44.136  47.763  1.00  0.00    -0.380 OA
HETATM   29  H   UNL     1      44.634  45.050  47.945  1.00  0.00     0.211 HD
ENDBRANCH  21  28
BRANCH  22  30
HETATM   30  O   UNL     1      42.872  44.500  49.709  1.00  0.00    -0.378 OA
HETATM   31  H   UNL     1      42.827  44.316  48.751  1.00  0.00     0.211 HD
ENDBRANCH  22  30
ENDBRANCH   1  17
TORSDOF 12
ENDMDL
