MODEL 1
REMARK VINA RESULT:    -6.328      0.000      0.000
REMARK INTER + INTRA:         -10.690
REMARK INTER:                  -9.236
REMARK INTRA:                  -1.454
REMARK UNBOUND:                -1.402
REMARK  12 active torsions:
REMARK  status: ('A' for Active; 'I' for Inactive)
REMARK    1  A    between atoms: O_1  and  C_12 
REMARK    2  A    between atoms: O_1  and  C_14 
REMARK    3  A    between atoms: O_4  and  C_13 
REMARK    4  A    between atoms: O_5  and  C_16 
REMARK    5  A    between atoms: O_6  and  C_17 
REMARK    6  A    between atoms: O_7  and  C_18 
REMARK    7  A    between atoms: O_8  and  C_19 
REMARK    8  A    between atoms: O_9  and  C_21 
REMARK    9  A    between atoms: O_10  and  C_22 
REMARK   10  A    between atoms: O_11  and  C_23 
REMARK   11  A    between atoms: C_15  and  C_22 
REMARK   12  A    between atoms: C_20  and  C_23 
ROOT
HETATM    1  O   UNL     1      45.248  42.926  52.625  1.00  0.00    -0.326 OA
ENDROOT
BRANCH   1   2
HETATM    2  C   UNL     1      44.995  43.799  53.745  1.00  0.00     0.177 C 
HETATM    3  C   UNL     1      46.236  44.669  54.040  1.00  0.00     0.172 C 
HETATM    4  C   UNL     1      45.913  45.815  55.005  1.00  0.00     0.197 C 
HETATM    5  C   UNL     1      44.645  46.561  54.563  1.00  0.00     0.263 C 
HETATM    6  O   UNL     1      43.551  45.674  54.408  1.00  0.00    -0.327 OA
HETATM    7  C   UNL     1      43.803  44.702  53.381  1.00  0.00     0.177 C 
BRANCH   3   8
HETATM    8  O   UNL     1      47.273  43.856  54.621  1.00  0.00    -0.380 OA
HETATM    9  H   UNL     1      47.431  44.234  55.510  1.00  0.00     0.211 HD
ENDBRANCH   3   8
BRANCH   4  10
HETATM   10  O   UNL     1      47.010  46.743  55.060  1.00  0.00    -0.378 OA
HETATM   11  H   UNL     1      47.814  46.197  54.962  1.00  0.00     0.211 HD
ENDBRANCH   4  10
BRANCH   5  12
HETATM   12  O   UNL     1      44.310  47.503  55.575  1.00  0.00    -0.359 OA
HETATM   13  H   UNL     1      45.155  47.745  55.989  1.00  0.00     0.213 HD
ENDBRANCH   5  12
BRANCH   7  14
HETATM   14  C   UNL     1      42.519  43.880  53.213  1.00  0.00     0.170 C 
BRANCH  14  15
HETATM   15  O   UNL     1      42.249  43.693  51.824  1.00  0.00    -0.380 OA
HETATM   16  H   UNL     1      42.014  42.750  51.725  1.00  0.00     0.211 HD
ENDBRANCH  14  15
ENDBRANCH   7  14
ENDBRANCH   1   2
BRANCH   1  17
HETATM   17  C   UNL     1      45.671  43.611  51.438  1.00  0.00     0.266 C 
HETATM   18  O   UNL     1      44.672  43.483  50.433  1.00  0.00    -0.326 OA
HETATM   19  C   UNL     1      45.017  44.213  49.233  1.00  0.00     0.176 C 
HETATM   20  C   UNL     1      46.252  43.559  48.595  1.00  0.00     0.170 C 
HETATM   21  C   UNL     1      47.404  43.578  49.619  1.00  0.00     0.172 C 
HETATM   22  C   UNL     1      46.983  42.961  50.959  1.00  0.00     0.197 C 
BRANCH  19  23
HETATM   23  C   UNL     1      43.792  44.186  48.316  1.00  0.00     0.170 C 
BRANCH  23  24
HETATM   24  O   UNL     1      42.905  43.150  48.744  1.00  0.00    -0.380 OA
HETATM   25  H   UNL     1      42.878  42.477  48.032  1.00  0.00     0.211 HD
ENDBRANCH  23  24
ENDBRANCH  19  23
BRANCH  20  26
HETATM   26  O   UNL     1      45.935  42.221  48.187  1.00  0.00    -0.380 OA
HETATM   27  H   UNL     1      44.997  42.181  47.936  1.00  0.00     0.211 HD
ENDBRANCH  20  26
BRANCH  21  28
HETATM   28  O   UNL     1      48.557  42.899  49.116  1.00  0.00    -0.380 OA
HETATM   29  H   UNL     1      49.253  43.012  49.792  1.00  0.00     0.211 HD
ENDBRANCH  21  28
BRANCH  22  30
HETATM   30  O   UNL     1      48.040  43.156  51.911  1.00  0.00    -0.378 OA
HETATM   31  H   UNL     1      48.842  42.770  51.509  1.00  0.00     0.211 HD
ENDBRANCH  22  30
ENDBRANCH   1  17
TORSDOF 12
ENDMDL
MODEL 2
REMARK VINA RESULT:    -6.070      1.828      6.129
REMARK INTER + INTRA:         -10.312
REMARK INTER:                  -8.909
REMARK INTRA:                  -1.402
REMARK UNBOUND:                -1.402
REMARK  12 active torsions:
REMARK  status: ('A' for Active; 'I' for Inactive)
REMARK    1  A    between atoms: O_1  and  C_12 
REMARK    2  A    between atoms: O_1  and  C_14 
REMARK    3  A    between atoms: O_4  and  C_13 
REMARK    4  A    between atoms: O_5  and  C_16 
REMARK    5  A    between atoms: O_6  and  C_17 
REMARK    6  A    between atoms: O_7  and  C_18 
REMARK    7  A    between atoms: O_8  and  C_19 
REMARK    8  A    between atoms: O_9  and  C_21 
REMARK    9  A    between atoms: O_10  and  C_22 
REMARK   10  A    between atoms: O_11  and  C_23 
REMARK   11  A    between atoms: C_15  and  C_22 
REMARK   12  A    between atoms: C_20  and  C_23 
ROOT
HETATM    1  O   UNL     1      45.823  43.771  50.545  1.00  0.00    -0.326 OA
ENDROOT
BRANCH   1   2
HETATM    2  C   UNL     1      45.171  43.367  49.324  1.00  0.00     0.177 C 
HETATM    3  C   UNL     1      43.958  44.277  49.035  1.00  0.00     0.172 C 
HETATM    4  C   UNL     1      43.429  44.087  47.609  1.00  0.00     0.197 C 
HETATM    5  C   UNL     1      44.577  44.134  46.590  1.00  0.00     0.263 C 
HETATM    6  O   UNL     1      45.591  43.197  46.908  1.00  0.00    -0.327 OA
HETATM    7  C   UNL     1      46.193  43.485  48.180  1.00  0.00     0.177 C 
BRANCH   3   8
HETATM    8  O   UNL     1      42.897  43.982  49.963  1.00  0.00    -0.380 OA
HETATM    9  H   UNL     1      42.758  44.808  50.469  1.00  0.00     0.211 HD
ENDBRANCH   3   8
BRANCH   4  10
HETATM   10  O   UNL     1      42.475  45.115  47.292  1.00  0.00    -0.378 OA
HETATM   11  H   UNL     1      41.644  44.837  47.722  1.00  0.00     0.211 HD
ENDBRANCH   4  10
BRANCH   5  12
HETATM   12  O   UNL     1      44.049  43.797  45.313  1.00  0.00    -0.359 OA
HETATM   13  H   UNL     1      43.863  44.647  44.881  1.00  0.00     0.213 HD
ENDBRANCH   5  12
BRANCH   7  14
HETATM   14  C   UNL     1      47.349  42.494  48.366  1.00  0.00     0.170 C 
BRANCH  14  15
HETATM   15  O   UNL     1      48.305  43.040  49.274  1.00  0.00    -0.380 OA
HETATM   16  H   UNL     1      47.912  42.944  50.163  1.00  0.00     0.211 HD
ENDBRANCH  14  15
ENDBRANCH   7  14
ENDBRANCH   1   2
BRANCH   1  17
HETATM   17  C   UNL     1      45.391  43.044  51.703  1.00  0.00     0.266 C 
HETATM   18  O   UNL     1      44.370  43.776  52.371  1.00  0.00    -0.326 OA
HETATM   19  C   UNL     1      43.849  43.056  53.512  1.00  0.00     0.176 C 
HETATM   20  C   UNL     1      44.956  42.939  54.570  1.00  0.00     0.170 C 
HETATM   21  C   UNL     1      46.161  42.209  53.944  1.00  0.00     0.172 C 
HETATM   22  C   UNL     1      46.606  42.870  52.634  1.00  0.00     0.197 C 
BRANCH  19  23
HETATM   23  C   UNL     1      42.626  43.826  54.016  1.00  0.00     0.170 C 
BRANCH  23  24
HETATM   24  O   UNL     1      42.740  45.198  53.631  1.00  0.00    -0.380 OA
HETATM   25  H   UNL     1      42.895  45.718  54.447  1.00  0.00     0.211 HD
ENDBRANCH  23  24
ENDBRANCH  19  23
BRANCH  20  26
HETATM   26  O   UNL     1      45.318  44.246  55.038  1.00  0.00    -0.380 OA
HETATM   27  H   UNL     1      46.287  44.321  55.048  1.00  0.00     0.211 HD
ENDBRANCH  20  26
BRANCH  21  28
HETATM   28  O   UNL     1      47.262  42.151  54.854  1.00  0.00    -0.380 OA
HETATM   29  H   UNL     1      47.481  41.204  54.951  1.00  0.00     0.211 HD
ENDBRANCH  21  28
BRANCH  22  30
HETATM   30  O   UNL     1      47.617  42.054  52.024  1.00  0.00    -0.378 OA
HETATM   31  H   UNL     1      48.435  42.206  52.537  1.00  0.00     0.211 HD
ENDBRANCH  22  30
ENDBRANCH   1  17
TORSDOF 12
ENDMDL
MODEL 3
REMARK VINA RESULT:    -5.977      2.223      3.632
REMARK INTER + INTRA:         -10.174
REMARK INTER:                  -8.880
REMARK INTRA:                  -1.294
REMARK UNBOUND:                -1.402
REMARK  12 active torsions:
REMARK  status: ('A' for Active; 'I' for Inactive)
REMARK    1  A    between atoms: O_1  and  C_12 
REMARK    2  A    between atoms: O_1  and  C_14 
REMARK    3  A    between atoms: O_4  and  C_13 
REMARK    4  A    between atoms: O_5  and  C_16 
REMARK    5  A    between atoms: O_6  and  C_17 
REMARK    6  A    between atoms: O_7  and  C_18 
REMARK    7  A    between atoms: O_8  and  C_19 
REMARK    8  A    between atoms: O_9  and  C_21 
REMARK    9  A    between atoms: O_10  and  C_22 
REMARK   10  A    between atoms: O_11  and  C_23 
REMARK   11  A    between atoms: C_15  and  C_22 
REMARK   12  A    between atoms: C_20  and  C_23 
ROOT
HETATM    1  O   UNL     1      44.770  43.744  52.448  1.00  0.00    -0.326 OA
ENDROOT
BRANCH   1   2
HETATM    2  C   UNL     1      44.280  42.788  53.411  1.00  0.00     0.177 C 
HETATM    3  C   UNL     1      45.450  42.195  54.225  1.00  0.00     0.172 C 
HETATM    4  C   UNL     1      44.956  41.421  55.452  1.00  0.00     0.197 C 
HETATM    5  C   UNL     1      43.924  42.242  56.238  1.00  0.00     0.263 C 
HETATM    6  O   UNL     1      42.853  42.658  55.408  1.00  0.00    -0.327 OA
HETATM    7  C   UNL     1      43.309  43.521  54.354  1.00  0.00     0.177 C 
BRANCH   3   8
HETATM    8  O   UNL     1      46.217  41.303  53.395  1.00  0.00    -0.380 OA
HETATM    9  H   UNL     1      45.947  40.402  53.665  1.00  0.00     0.211 HD
ENDBRANCH   3   8
BRANCH   4  10
HETATM   10  O   UNL     1      46.061  41.102  56.316  1.00  0.00    -0.378 OA
HETATM   11  H   UNL     1      46.495  41.957  56.504  1.00  0.00     0.211 HD
ENDBRANCH   4  10
BRANCH   5  12
HETATM   12  O   UNL     1      43.391  41.417  57.266  1.00  0.00    -0.359 OA
HETATM   13  H   UNL     1      42.547  41.086  56.917  1.00  0.00     0.213 HD
ENDBRANCH   5  12
BRANCH   7  14
HETATM   14  C   UNL     1      42.066  44.006  53.599  1.00  0.00     0.170 C 
BRANCH  14  15
HETATM   15  O   UNL     1      42.357  45.237  52.938  1.00  0.00    -0.380 OA
HETATM   16  H   UNL     1      43.274  45.462  53.189  1.00  0.00     0.211 HD
ENDBRANCH  14  15
ENDBRANCH   7  14
ENDBRANCH   1   2
BRANCH   1  17
HETATM   17  C   UNL     1      44.923  43.211  51.126  1.00  0.00     0.266 C 
HETATM   18  O   UNL     1      46.306  43.139  50.799  1.00  0.00    -0.326 OA
HETATM   19  C   UNL     1      46.522  42.545  49.498  1.00  0.00     0.176 C 
HETATM   20  C   UNL     1      45.949  43.483  48.425  1.00  0.00     0.170 C 
HETATM   21  C   UNL     1      44.448  43.696  48.707  1.00  0.00     0.172 C 
HETATM   22  C   UNL     1      44.202  44.159  50.148  1.00  0.00     0.197 C 
BRANCH  19  23
HETATM   23  C   UNL     1      48.028  42.319  49.345  1.00  0.00     0.170 C 
BRANCH  23  24
HETATM   24  O   UNL     1      48.725  43.502  49.742  1.00  0.00    -0.380 OA
HETATM   25  H   UNL     1      49.670  43.374  49.515  1.00  0.00     0.211 HD
ENDBRANCH  23  24
ENDBRANCH  19  23
BRANCH  20  26
HETATM   26  O   UNL     1      46.667  44.725  48.436  1.00  0.00    -0.380 OA
HETATM   27  H   UNL     1      46.885  44.957  49.353  1.00  0.00     0.211 HD
ENDBRANCH  20  26
BRANCH  21  28
HETATM   28  O   UNL     1      43.878  44.636  47.793  1.00  0.00    -0.380 OA
HETATM   29  H   UNL     1      43.759  44.156  46.951  1.00  0.00     0.211 HD
ENDBRANCH  21  28
BRANCH  22  30
HETATM   30  O   UNL     1      42.787  44.181  50.391  1.00  0.00    -0.378 OA
HETATM   31  H   UNL     1      42.447  44.977  49.939  1.00  0.00     0.211 HD
ENDBRANCH  22  30
ENDBRANCH   1  17
TORSDOF 12
ENDMDL
MODEL 4
REMARK VINA RESULT:    -5.802      1.882      3.951
REMARK INTER + INTRA:          -9.917
REMARK INTER:                  -8.717
REMARK INTRA:                  -1.200
REMARK UNBOUND:                -1.402
REMARK  12 active torsions:
REMARK  status: ('A' for Active; 'I' for Inactive)
REMARK    1  A    between atoms: O_1  and  C_12 
REMARK    2  A    between atoms: O_1  and  C_14 
REMARK    3  A    between atoms: O_4  and  C_13 
REMARK    4  A    between atoms: O_5  and  C_16 
REMARK    5  A    between atoms: O_6  and  C_17 
REMARK    6  A    between atoms: O_7  and  C_18 
REMARK    7  A    between atoms: O_8  and  C_19 
REMARK    8  A    between atoms: O_9  and  C_21 
REMARK    9  A    between atoms: O_10  and  C_22 
REMARK   10  A    between atoms: O_11  and  C_23 
REMARK   11  A    between atoms: C_15  and  C_22 
REMARK   12  A    between atoms: C_20  and  C_23 
ROOT
HETATM    1  O   UNL     1      44.481  45.263  52.673  1.00  0.00    -0.326 OA
ENDROOT
BRANCH   1   2
HETATM    2  C   UNL     1      44.416  44.930  54.075  1.00  0.00     0.177 C 
HETATM    3  C   UNL     1      43.713  43.570  54.273  1.00  0.00     0.172 C 
HETATM    4  C   UNL     1      43.896  43.035  55.698  1.00  0.00     0.197 C 
HETATM    5  C   UNL     1      45.370  43.110  56.124  1.00  0.00     0.263 C 
HETATM    6  O   UNL     1      45.884  44.423  55.981  1.00  0.00    -0.327 OA
HETATM    7  C   UNL     1      45.857  44.852  54.610  1.00  0.00     0.177 C 
BRANCH   3   8
HETATM    8  O   UNL     1      42.304  43.709  54.011  1.00  0.00    -0.380 OA
HETATM    9  H   UNL     1      42.150  44.671  53.923  1.00  0.00     0.211 HD
ENDBRANCH   3   8
BRANCH   4  10
HETATM   10  O   UNL     1      43.453  41.669  55.777  1.00  0.00    -0.378 OA
HETATM   11  H   UNL     1      42.700  41.679  56.398  1.00  0.00     0.211 HD
ENDBRANCH   4  10
BRANCH   5  12
HETATM   12  O   UNL     1      45.452  42.751  57.498  1.00  0.00    -0.359 OA
HETATM   13  H   UNL     1      45.468  41.780  57.508  1.00  0.00     0.213 HD
ENDBRANCH   5  12
BRANCH   7  14
HETATM   14  C   UNL     1      46.543  46.222  54.553  1.00  0.00     0.170 C 
BRANCH  14  15
HETATM   15  O   UNL     1      45.568  47.236  54.308  1.00  0.00    -0.380 OA
HETATM   16  H   UNL     1      45.944  47.800  53.605  1.00  0.00     0.211 HD
ENDBRANCH  14  15
ENDBRANCH   7  14
ENDBRANCH   1   2
BRANCH   1  17
HETATM   17  C   UNL     1      44.662  44.129  51.815  1.00  0.00     0.266 C 
HETATM   18  O   UNL     1      45.949  44.190  51.210  1.00  0.00    -0.326 OA
HETATM   19  C   UNL     1      46.213  43.033  50.383  1.00  0.00     0.176 C 
HETATM   20  C   UNL     1      45.253  43.054  49.184  1.00  0.00     0.170 C 
HETATM   21  C   UNL     1      43.805  43.053  49.712  1.00  0.00     0.172 C 
HETATM   22  C   UNL     1      43.571  44.178  50.729  1.00  0.00     0.197 C 
BRANCH  19  23
HETATM   23  C   UNL     1      47.684  43.097  49.966  1.00  0.00     0.170 C 
BRANCH  23  24
HETATM   24  O   UNL     1      48.085  44.466  49.858  1.00  0.00    -0.380 OA
HETATM   25  H   UNL     1      47.603  44.851  49.097  1.00  0.00     0.211 HD
ENDBRANCH  23  24
ENDBRANCH  19  23
BRANCH  20  26
HETATM   26  O   UNL     1      45.516  44.209  48.374  1.00  0.00    -0.380 OA
HETATM   27  H   UNL     1      45.290  44.005  47.451  1.00  0.00     0.211 HD
ENDBRANCH  20  26
BRANCH  21  28
HETATM   28  O   UNL     1      42.863  43.166  48.642  1.00  0.00    -0.380 OA
HETATM   29  H   UNL     1      43.354  43.551  47.891  1.00  0.00     0.211 HD
ENDBRANCH  21  28
BRANCH  22  30
HETATM   30  O   UNL     1      42.262  44.022  51.298  1.00  0.00    -0.378 OA
HETATM   31  H   UNL     1      41.674  44.614  50.791  1.00  0.00     0.211 HD
ENDBRANCH  22  30
ENDBRANCH   1  17
TORSDOF 12
ENDMDL
MODEL 5
REMARK VINA RESULT:    -5.755      1.795      6.201
REMARK INTER + INTRA:          -9.848
REMARK INTER:                  -8.881
REMARK INTRA:                  -0.967
REMARK UNBOUND:                -1.402
REMARK  12 active torsions:
REMARK  status: ('A' for Active; 'I' for Inactive)
REMARK    1  A    between atoms: O_1  and  C_12 
REMARK    2  A    between atoms: O_1  and  C_14 
REMARK    3  A    between atoms: O_4  and  C_13 
REMARK    4  A    between atoms: O_5  and  C_16 
REMARK    5  A    between atoms: O_6  and  C_17 
REMARK    6  A    between atoms: O_7  and  C_18 
REMARK    7  A    between atoms: O_8  and  C_19 
REMARK    8  A    between atoms: O_9  and  C_21 
REMARK    9  A    between atoms: O_10  and  C_22 
REMARK   10  A    between atoms: O_11  and  C_23 
REMARK   11  A    between atoms: C_15  and  C_22 
REMARK   12  A    between atoms: C_20  and  C_23 
ROOT
HETATM    1  O   UNL     1      44.940  44.971  52.147  1.00  0.00    -0.326 OA
ENDROOT
BRANCH   1   2
HETATM    2  C   UNL     1      45.028  44.075  51.020  1.00  0.00     0.177 C 
HETATM    3  C   UNL     1      43.721  44.114  50.199  1.00  0.00     0.172 C 
HETATM    4  C   UNL     1      43.882  43.427  48.838  1.00  0.00     0.197 C 
HETATM    5  C   UNL     1      45.151  43.915  48.125  1.00  0.00     0.263 C 
HETATM    6  O   UNL     1      46.299  43.751  48.941  1.00  0.00    -0.327 OA
HETATM    7  C   UNL     1      46.206  44.533  50.142  1.00  0.00     0.177 C 
BRANCH   3   8
HETATM    8  O   UNL     1      42.670  43.454  50.927  1.00  0.00    -0.380 OA
HETATM    9  H   UNL     1      43.122  42.935  51.623  1.00  0.00     0.211 HD
ENDBRANCH   3   8
BRANCH   4  10
HETATM   10  O   UNL     1      42.741  43.699  48.006  1.00  0.00    -0.378 OA
HETATM   11  H   UNL     1      43.110  43.984  47.148  1.00  0.00     0.211 HD
ENDBRANCH   4  10
BRANCH   5  12
HETATM   12  O   UNL     1      45.329  43.133  46.951  1.00  0.00    -0.359 OA
HETATM   13  H   UNL     1      44.659  42.432  47.006  1.00  0.00     0.213 HD
ENDBRANCH   5  12
BRANCH   7  14
HETATM   14  C   UNL     1      47.540  44.379  50.884  1.00  0.00     0.170 C 
BRANCH  14  15
HETATM   15  O   UNL     1      47.619  43.075  51.460  1.00  0.00    -0.380 OA
HETATM   16  H   UNL     1      48.329  43.125  52.130  1.00  0.00     0.211 HD
ENDBRANCH  14  15
ENDBRANCH   7  14
ENDBRANCH   1   2
BRANCH   1  17
HETATM   17  C   UNL     1      44.882  44.305  53.415  1.00  0.00     0.266 C 
HETATM   18  O   UNL     1      45.573  43.064  53.333  1.00  0.00    -0.326 OA
HETATM   19  C   UNL     1      45.605  42.378  54.605  1.00  0.00     0.176 C 
HETATM   20  C   UNL     1      44.173  41.965  54.979  1.00  0.00     0.170 C 
HETATM   21  C   UNL     1      43.296  43.232  55.041  1.00  0.00     0.172 C 
HETATM   22  C   UNL     1      43.400  44.057  53.753  1.00  0.00     0.197 C 
BRANCH  19  23
HETATM   23  C   UNL     1      46.545  41.180  54.454  1.00  0.00     0.170 C 
BRANCH  23  24
HETATM   24  O   UNL     1      47.790  41.624  53.907  1.00  0.00    -0.380 OA
HETATM   25  H   UNL     1      48.504  41.231  54.451  1.00  0.00     0.211 HD
ENDBRANCH  23  24
ENDBRANCH  19  23
BRANCH  20  26
HETATM   26  O   UNL     1      43.673  41.027  54.017  1.00  0.00    -0.380 OA
HETATM   27  H   UNL     1      44.418  40.527  53.645  1.00  0.00     0.211 HD
ENDBRANCH  20  26
BRANCH  21  28
HETATM   28  O   UNL     1      41.928  42.903  55.295  1.00  0.00    -0.380 OA
HETATM   29  H   UNL     1      41.427  43.216  54.516  1.00  0.00     0.211 HD
ENDBRANCH  21  28
BRANCH  22  30
HETATM   30  O   UNL     1      42.694  45.294  53.937  1.00  0.00    -0.378 OA
HETATM   31  H   UNL     1      43.219  45.813  54.577  1.00  0.00     0.211 HD
ENDBRANCH  22  30
ENDBRANCH   1  17
TORSDOF 12
ENDMDL
MODEL 6
REMARK VINA RESULT:    -5.754      1.439      6.204
REMARK INTER + INTRA:          -9.848
REMARK INTER:                  -9.116
REMARK INTRA:                  -0.733
REMARK UNBOUND:                -1.402
REMARK  12 active torsions:
REMARK  status: ('A' for Active; 'I' for Inactive)
REMARK    1  A    between atoms: O_1  and  C_12 
REMARK    2  A    between atoms: O_1  and  C_14 
REMARK    3  A    between atoms: O_4  and  C_13 
REMARK    4  A    between atoms: O_5  and  C_16 
REMARK    5  A    between atoms: O_6  and  C_17 
REMARK    6  A    between atoms: O_7  and  C_18 
REMARK    7  A    between atoms: O_8  and  C_19 
REMARK    8  A    between atoms: O_9  and  C_21 
REMARK    9  A    between atoms: O_10  and  C_22 
REMARK   10  A    between atoms: O_11  and  C_23 
REMARK   11  A    between atoms: C_15  and  C_22 
REMARK   12  A    between atoms: C_20  and  C_23 
ROOT
HETATM    1  O   UNL     1      44.882  43.642  51.475  1.00  0.00    -0.326 OA
ENDROOT
BRANCH   1   2
HETATM    2  C   UNL     1      45.588  43.846  50.234  1.00  0.00     0.177 C 
HETATM    3  C   UNL     1      46.966  43.151  50.279  1.00  0.00     0.172 C 
HETATM    4  C   UNL     1      47.613  43.076  48.891  1.00  0.00     0.197 C 
HETATM    5  C   UNL     1      46.614  42.546  47.851  1.00  0.00     0.263 C 
HETATM    6  O   UNL     1      45.423  43.313  47.839  1.00  0.00    -0.327 OA
HETATM    7  C   UNL     1      44.739  43.242  49.101  1.00  0.00     0.177 C 
BRANCH   3   8
HETATM    8  O   UNL     1      47.847  43.875  51.158  1.00  0.00    -0.380 OA
HETATM    9  H   UNL     1      47.886  44.784  50.796  1.00  0.00     0.211 HD
ENDBRANCH   3   8
BRANCH   4  10
HETATM   10  O   UNL     1      48.762  42.212  48.924  1.00  0.00    -0.378 OA
HETATM   11  H   UNL     1      49.524  42.789  48.727  1.00  0.00     0.211 HD
ENDBRANCH   4  10
BRANCH   5  12
HETATM   12  O   UNL     1      47.217  42.648  46.567  1.00  0.00    -0.359 OA
HETATM   13  H   UNL     1      46.930  43.507  46.216  1.00  0.00     0.213 HD
ENDBRANCH   5  12
BRANCH   7  14
HETATM   14  C   UNL     1      43.415  43.998  48.940  1.00  0.00     0.170 C 
BRANCH  14  15
HETATM   15  O   UNL     1      42.468  43.166  48.270  1.00  0.00    -0.380 OA
HETATM   16  H   UNL     1      42.689  42.251  48.529  1.00  0.00     0.211 HD
ENDBRANCH  14  15
ENDBRANCH   7  14
ENDBRANCH   1   2
BRANCH   1  17
HETATM   17  C   UNL     1      45.272  44.543  52.520  1.00  0.00     0.266 C 
HETATM   18  O   UNL     1      45.855  43.807  53.589  1.00  0.00    -0.326 OA
HETATM   19  C   UNL     1      46.329  44.674  54.645  1.00  0.00     0.176 C 
HETATM   20  C   UNL     1      45.120  45.360  55.300  1.00  0.00     0.170 C 
HETATM   21  C   UNL     1      44.357  46.151  54.220  1.00  0.00     0.172 C 
HETATM   22  C   UNL     1      44.007  45.271  53.014  1.00  0.00     0.197 C 
BRANCH  19  23
HETATM   23  C   UNL     1      47.121  43.806  55.626  1.00  0.00     0.170 C 
BRANCH  23  24
HETATM   24  O   UNL     1      46.562  42.490  55.650  1.00  0.00    -0.380 OA
HETATM   25  H   UNL     1      46.063  42.401  56.488  1.00  0.00     0.211 HD
ENDBRANCH  23  24
ENDBRANCH  19  23
BRANCH  20  26
HETATM   26  O   UNL     1      44.282  44.375  55.921  1.00  0.00    -0.380 OA
HETATM   27  H   UNL     1      44.825  43.820  56.505  1.00  0.00     0.211 HD
ENDBRANCH  20  26
BRANCH  21  28
HETATM   28  O   UNL     1      43.167  46.738  54.750  1.00  0.00    -0.380 OA
HETATM   29  H   UNL     1      42.705  46.023  55.230  1.00  0.00     0.211 HD
ENDBRANCH  21  28
BRANCH  22  30
HETATM   30  O   UNL     1      43.447  46.099  51.983  1.00  0.00    -0.378 OA
HETATM   31  H   UNL     1      42.665  46.531  52.378  1.00  0.00     0.211 HD
ENDBRANCH  22  30
ENDBRANCH   1  17
TORSDOF 12
ENDMDL
MODEL 7
REMARK VINA RESULT:    -5.744      1.620      6.232
REMARK INTER + INTRA:          -9.833
REMARK INTER:                  -9.414
REMARK INTRA:                  -0.419
REMARK UNBOUND:                -1.402
REMARK  12 active torsions:
REMARK  status: ('A' for Active; 'I' for Inactive)
REMARK    1  A    between atoms: O_1  and  C_12 
REMARK    2  A    between atoms: O_1  and  C_14 
REMARK    3  A    between atoms: O_4  and  C_13 
REMARK    4  A    between atoms: O_5  and  C_16 
REMARK    5  A    between atoms: O_6  and  C_17 
REMARK    6  A    between atoms: O_7  and  C_18 
REMARK    7  A    between atoms: O_8  and  C_19 
REMARK    8  A    between atoms: O_9  and  C_21 
REMARK    9  A    between atoms: O_10  and  C_22 
REMARK   10  A    between atoms: O_11  and  C_23 
REMARK   11  A    between atoms: C_15  and  C_22 
REMARK   12  A    between atoms: C_20  and  C_23 
ROOT
HETATM    1  O   UNL     1      45.883  43.622  51.362  1.00  0.00    -0.326 OA
ENDROOT
BRANCH   1   2
HETATM    2  C   UNL     1      45.301  43.306  50.080  1.00  0.00     0.177 C 
HETATM    3  C   UNL     1      43.921  43.982  49.935  1.00  0.00     0.172 C 
HETATM    4  C   UNL     1      43.412  43.932  48.489  1.00  0.00     0.197 C 
HETATM    5  C   UNL     1      44.503  44.389  47.510  1.00  0.00     0.263 C 
HETATM    6  O   UNL     1      45.694  43.641  47.677  1.00  0.00    -0.327 OA
HETATM    7  C   UNL     1      46.252  43.826  48.988  1.00  0.00     0.177 C 
BRANCH   3   8
HETATM    8  O   UNL     1      42.964  43.320  50.783  1.00  0.00    -0.380 OA
HETATM    9  H   UNL     1      42.344  44.021  51.071  1.00  0.00     0.211 HD
ENDBRANCH   3   8
BRANCH   4  10
HETATM   10  O   UNL     1      42.260  44.780  48.340  1.00  0.00    -0.378 OA
HETATM   11  H   UNL     1      41.677  44.314  47.710  1.00  0.00     0.211 HD
ENDBRANCH   4  10
BRANCH   5  12
HETATM   12  O   UNL     1      44.028  44.173  46.187  1.00  0.00    -0.359 OA
HETATM   13  H   UNL     1      43.329  44.834  46.054  1.00  0.00     0.213 HD
ENDBRANCH   5  12
BRANCH   7  14
HETATM   14  C   UNL     1      47.590  43.078  49.018  1.00  0.00     0.170 C 
BRANCH  14  15
HETATM   15  O   UNL     1      48.533  43.815  49.796  1.00  0.00    -0.380 OA
HETATM   16  H   UNL     1      48.042  44.581  50.152  1.00  0.00     0.211 HD
ENDBRANCH  14  15
ENDBRANCH   7  14
ENDBRANCH   1   2
BRANCH   1  17
HETATM   17  C   UNL     1      44.926  44.032  52.348  1.00  0.00     0.266 C 
HETATM   18  O   UNL     1      45.298  45.302  52.872  1.00  0.00    -0.326 OA
HETATM   19  C   UNL     1      44.330  45.797  53.826  1.00  0.00     0.176 C 
HETATM   20  C   UNL     1      44.342  44.884  55.061  1.00  0.00     0.170 C 
HETATM   21  C   UNL     1      44.010  43.446  54.613  1.00  0.00     0.172 C 
HETATM   22  C   UNL     1      44.926  42.981  53.475  1.00  0.00     0.197 C 
BRANCH  19  23
HETATM   23  C   UNL     1      44.712  47.242  54.154  1.00  0.00     0.170 C 
BRANCH  23  24
HETATM   24  O   UNL     1      46.136  47.350  54.223  1.00  0.00    -0.380 OA
HETATM   25  H   UNL     1      46.342  48.099  54.820  1.00  0.00     0.211 HD
ENDBRANCH  23  24
ENDBRANCH  19  23
BRANCH  20  26
HETATM   26  O   UNL     1      45.623  44.952  55.701  1.00  0.00    -0.380 OA
HETATM   27  H   UNL     1      46.287  45.235  55.051  1.00  0.00     0.211 HD
ENDBRANCH  20  26
BRANCH  21  28
HETATM   28  O   UNL     1      44.097  42.530  55.707  1.00  0.00    -0.380 OA
HETATM   29  H   UNL     1      43.419  41.847  55.540  1.00  0.00     0.211 HD
ENDBRANCH  21  28
BRANCH  22  30
HETATM   30  O   UNL     1      44.463  41.708  52.999  1.00  0.00    -0.378 OA
HETATM   31  H   UNL     1      44.242  41.186  53.794  1.00  0.00     0.211 HD
ENDBRANCH  22  30
ENDBRANCH   1  17
TORSDOF 12
ENDMDL
MODEL 8
REMARK VINA RESULT:    -5.710      1.621      2.956
REMARK INTER + INTRA:          -9.783
REMARK INTER:                  -8.749
REMARK INTRA:                  -1.034
REMARK UNBOUND:                -1.402
REMARK  12 active torsions:
REMARK  status: ('A' for Active; 'I' for Inactive)
REMARK    1  A    between atoms: O_1  and  C_12 
REMARK    2  A    between atoms: O_1  and  C_14 
REMARK    3  A    between atoms: O_4  and  C_13 
REMARK    4  A    between atoms: O_5  and  C_16 
REMARK    5  A    between atoms: O_6  and  C_17 
REMARK    6  A    between atoms: O_7  and  C_18 
REMARK    7  A    between atoms: O_8  and  C_19 
REMARK    8  A    between atoms: O_9  and  C_21 
REMARK    9  A    between atoms: O_10  and  C_22 
REMARK   10  A    between atoms: O_11  and  C_23 
REMARK   11  A    between atoms: C_15  and  C_22 
REMARK   12  A    between atoms: C_20  and  C_23 
ROOT
HETATM    1  O   UNL     1      44.044  44.546  52.188  1.00  0.00    -0.326 OA
ENDROOT
BRANCH   1   2
HETATM    2  C   UNL     1      44.820  44.560  53.403  1.00  0.00     0.177 C 
HETATM    3  C   UNL     1      45.701  45.827  53.463  1.00  0.00     0.172 C 
HETATM    4  C   UNL     1      46.299  46.040  54.859  1.00  0.00     0.197 C 
HETATM    5  C   UNL     1      45.219  45.906  55.942  1.00  0.00     0.263 C 
HETATM    6  O   UNL     1      44.536  44.669  55.843  1.00  0.00    -0.327 OA
HETATM    7  C   UNL     1      43.841  44.552  54.590  1.00  0.00     0.177 C 
BRANCH   3   8
HETATM    8  O   UNL     1      46.777  45.717  52.513  1.00  0.00    -0.380 OA
HETATM    9  H   UNL     1      47.086  46.633  52.364  1.00  0.00     0.211 HD
ENDBRANCH   3   8
BRANCH   4  10
HETATM   10  O   UNL     1      46.898  47.344  54.949  1.00  0.00    -0.378 OA
HETATM   11  H   UNL     1      46.876  47.572  55.898  1.00  0.00     0.211 HD
ENDBRANCH   4  10
BRANCH   5  12
HETATM   12  O   UNL     1      45.858  45.956  57.212  1.00  0.00    -0.359 OA
HETATM   13  H   UNL     1      46.622  46.544  57.092  1.00  0.00     0.213 HD
ENDBRANCH   5  12
BRANCH   7  14
HETATM   14  C   UNL     1      43.043  43.243  54.639  1.00  0.00     0.170 C 
BRANCH  14  15
HETATM   15  O   UNL     1      41.912  43.404  55.495  1.00  0.00    -0.380 OA
HETATM   16  H   UNL     1      41.685  42.506  55.805  1.00  0.00     0.211 HD
ENDBRANCH  14  15
ENDBRANCH   7  14
ENDBRANCH   1   2
BRANCH   1  17
HETATM   17  C   UNL     1      44.538  43.639  51.194  1.00  0.00     0.266 C 
HETATM   18  O   UNL     1      45.945  43.487  51.346  1.00  0.00    -0.326 OA
HETATM   19  C   UNL     1      46.489  42.529  50.409  1.00  0.00     0.176 C 
HETATM   20  C   UNL     1      46.342  43.091  48.987  1.00  0.00     0.170 C 
HETATM   21  C   UNL     1      44.848  43.361  48.716  1.00  0.00     0.172 C 
HETATM   22  C   UNL     1      44.223  44.236  49.809  1.00  0.00     0.197 C 
BRANCH  19  23
HETATM   23  C   UNL     1      47.948  42.286  50.802  1.00  0.00     0.170 C 
BRANCH  23  24
HETATM   24  O   UNL     1      48.487  43.479  51.378  1.00  0.00    -0.380 OA
HETATM   25  H   UNL     1      47.730  44.043  51.641  1.00  0.00     0.211 HD
ENDBRANCH  23  24
ENDBRANCH  19  23
BRANCH  20  26
HETATM   26  O   UNL     1      47.124  44.286  48.855  1.00  0.00    -0.380 OA
HETATM   27  H   UNL     1      47.997  44.139  49.255  1.00  0.00     0.211 HD
ENDBRANCH  20  26
BRANCH  21  28
HETATM   28  O   UNL     1      44.656  43.973  47.438  1.00  0.00    -0.380 OA
HETATM   29  H   UNL     1      45.542  44.251  47.136  1.00  0.00     0.211 HD
ENDBRANCH  21  28
BRANCH  22  30
HETATM   30  O   UNL     1      42.807  44.314  49.586  1.00  0.00    -0.378 OA
HETATM   31  H   UNL     1      42.492  45.079  50.105  1.00  0.00     0.211 HD
ENDBRANCH  22  30
ENDBRANCH   1  17
TORSDOF 12
ENDMDL
MODEL 9
REMARK VINA RESULT:    -5.361      2.260      5.454
REMARK INTER + INTRA:          -9.270
REMARK INTER:                  -7.644
REMARK INTRA:                  -1.626
REMARK UNBOUND:                -1.402
REMARK  12 active torsions:
REMARK  status: ('A' for Active; 'I' for Inactive)
REMARK    1  A    between atoms: O_1  and  C_12 
REMARK    2  A    between atoms: O_1  and  C_14 
REMARK    3  A    between atoms: O_4  and  C_13 
REMARK    4  A    between atoms: O_5  and  C_16 
REMARK    5  A    between atoms: O_6  and  C_17 
REMARK    6  A    between atoms: O_7  and  C_18 
REMARK    7  A    between atoms: O_8  and  C_19 
REMARK    8  A    between atoms: O_9  and  C_21 
REMARK    9  A    between atoms: O_10  and  C_22 
REMARK   10  A    between atoms: O_11  and  C_23 
REMARK   11  A    between atoms: C_15  and  C_22 
REMARK   12  A    between atoms: C_20  and  C_23 
ROOT
HETATM    1  O   UNL     1      45.849  44.201  53.101  1.00  0.00    -0.326 OA
ENDROOT
BRANCH   1   2
HETATM    2  C   UNL     1      45.228  44.353  51.809  1.00  0.00     0.177 C 
HETATM    3  C   UNL     1      45.888  43.409  50.781  1.00  0.00     0.172 C 
HETATM    4  C   UNL     1      45.067  43.309  49.489  1.00  0.00     0.197 C 
HETATM    5  C   UNL     1      43.586  43.050  49.802  1.00  0.00     0.263 C 
HETATM    6  O   UNL     1      43.065  44.028  50.686  1.00  0.00    -0.327 OA
HETATM    7  C   UNL     1      43.737  44.000  51.955  1.00  0.00     0.177 C 
BRANCH   3   8
HETATM    8  O   UNL     1      47.204  43.891  50.453  1.00  0.00    -0.380 OA
HETATM    9  H   UNL     1      47.279  43.801  49.481  1.00  0.00     0.211 HD
ENDBRANCH   3   8
BRANCH   4  10
HETATM   10  O   UNL     1      45.568  42.242  48.664  1.00  0.00    -0.378 OA
HETATM   11  H   UNL     1      44.798  41.933  48.149  1.00  0.00     0.211 HD
ENDBRANCH   4  10
BRANCH   5  12
HETATM   12  O   UNL     1      42.857  43.124  48.583  1.00  0.00    -0.359 OA
HETATM   13  H   UNL     1      43.092  43.982  48.195  1.00  0.00     0.213 HD
ENDBRANCH   5  12
BRANCH   7  14
HETATM   14  C   UNL     1      43.019  45.002  52.867  1.00  0.00     0.170 C 
BRANCH  14  15
HETATM   15  O   UNL     1      42.880  44.446  54.174  1.00  0.00    -0.380 OA
HETATM   16  H   UNL     1      43.078  45.175  54.794  1.00  0.00     0.211 HD
ENDBRANCH  14  15
ENDBRANCH   7  14
ENDBRANCH   1   2
BRANCH   1  17
HETATM   17  C   UNL     1      45.921  42.843  53.556  1.00  0.00     0.266 C 
HETATM   18  O   UNL     1      44.957  42.633  54.582  1.00  0.00    -0.326 OA
HETATM   19  C   UNL     1      44.939  41.259  55.032  1.00  0.00     0.176 C 
HETATM   20  C   UNL     1      46.274  40.949  55.726  1.00  0.00     0.170 C 
HETATM   21  C   UNL     1      47.420  41.201  54.725  1.00  0.00     0.172 C 
HETATM   22  C   UNL     1      47.338  42.603  54.111  1.00  0.00     0.197 C 
BRANCH  19  23
HETATM   23  C   UNL     1      43.736  41.101  55.964  1.00  0.00     0.170 C 
BRANCH  23  24
HETATM   24  O   UNL     1      43.354  42.386  56.464  1.00  0.00    -0.380 OA
HETATM   25  H   UNL     1      42.984  42.892  55.711  1.00  0.00     0.211 HD
ENDBRANCH  23  24
ENDBRANCH  19  23
BRANCH  20  26
HETATM   26  O   UNL     1      46.411  41.765  56.898  1.00  0.00    -0.380 OA
HETATM   27  H   UNL     1      46.996  42.514  56.695  1.00  0.00     0.211 HD
ENDBRANCH  20  26
BRANCH  21  28
HETATM   28  O   UNL     1      48.696  41.018  55.342  1.00  0.00    -0.380 OA
HETATM   29  H   UNL     1      49.021  40.149  55.036  1.00  0.00     0.211 HD
ENDBRANCH  21  28
BRANCH  22  30
HETATM   30  O   UNL     1      48.328  42.714  53.077  1.00  0.00    -0.378 OA
HETATM   31  H   UNL     1      48.212  41.930  52.506  1.00  0.00     0.211 HD
ENDBRANCH  22  30
ENDBRANCH   1  17
TORSDOF 12
ENDMDL
MODEL 10
REMARK VINA RESULT:    -5.317      2.133      6.256
REMARK INTER + INTRA:          -9.205
REMARK INTER:                  -7.921
REMARK INTRA:                  -1.285
REMARK UNBOUND:                -1.402
REMARK  12 active torsions:
REMARK  status: ('A' for Active; 'I' for Inactive)
REMARK    1  A    between atoms: O_1  and  C_12 
REMARK    2  A    between atoms: O_1  and  C_14 
REMARK    3  A    between atoms: O_4  and  C_13 
REMARK    4  A    between atoms: O_5  and  C_16 
REMARK    5  A    between atoms: O_6  and  C_17 
REMARK    6  A    between atoms: O_7  and  C_18 
REMARK    7  A    between atoms: O_8  and  C_19 
REMARK    8  A    between atoms: O_9  and  C_21 
REMARK    9  A    between atoms: O_10  and  C_22 
REMARK   10  A    between atoms: O_11  and  C_23 
REMARK   11  A    between atoms: C_15  and  C_22 
REMARK   12  A    between atoms: C_20  and  C_23 
ROOT
HETATM    1  O   UNL     1      46.449  44.473  53.294  1.00  0.00    -0.326 OA
ENDROOT
BRANCH   1   2
HETATM    2  C   UNL     1      45.543  43.796  52.399  1.00  0.00     0.177 C 
HETATM    3  C   UNL     1      44.385  44.734  51.996  1.00  0.00     0.172 C 
HETATM    4  C   UNL     1      43.580  44.172  50.819  1.00  0.00     0.197 C 
HETATM    5  C   UNL     1      44.513  43.713  49.689  1.00  0.00     0.263 C 
HETATM    6  O   UNL     1      45.479  42.789  50.158  1.00  0.00    -0.327 OA
HETATM    7  C   UNL     1      46.336  43.382  51.147  1.00  0.00     0.177 C 
BRANCH   3   8
HETATM    8  O   UNL     1      43.497  44.919  53.114  1.00  0.00    -0.380 OA
HETATM    9  H   UNL     1      42.688  45.322  52.740  1.00  0.00     0.211 HD
ENDBRANCH   3   8
BRANCH   4  10
HETATM   10  O   UNL     1      42.680  45.172  50.310  1.00  0.00    -0.378 OA
HETATM   11  H   UNL     1      42.809  45.165  49.342  1.00  0.00     0.211 HD
ENDBRANCH   4  10
BRANCH   5  12
HETATM   12  O   UNL     1      43.724  43.063  48.700  1.00  0.00    -0.359 OA
HETATM   13  H   UNL     1      43.450  42.223  49.103  1.00  0.00     0.213 HD
ENDBRANCH   5  12
BRANCH   7  14
HETATM   14  C   UNL     1      47.411  42.344  51.492  1.00  0.00     0.170 C 
BRANCH  14  15
HETATM   15  O   UNL     1      48.556  43.002  52.034  1.00  0.00    -0.380 OA
HETATM   16  H   UNL     1      49.154  42.290  52.332  1.00  0.00     0.211 HD
ENDBRANCH  14  15
ENDBRANCH   7  14
ENDBRANCH   1   2
BRANCH   1  17
HETATM   17  C   UNL     1      46.361  44.029  54.655  1.00  0.00     0.266 C 
HETATM   18  O   UNL     1      45.213  43.204  54.813  1.00  0.00    -0.326 OA
HETATM   19  C   UNL     1      45.111  42.672  56.154  1.00  0.00     0.176 C 
HETATM   20  C   UNL     1      44.854  43.833  57.127  1.00  0.00     0.170 C 
HETATM   21  C   UNL     1      46.012  44.843  57.006  1.00  0.00     0.172 C 
HETATM   22  C   UNL     1      46.238  45.276  55.552  1.00  0.00     0.197 C 
BRANCH  19  23
HETATM   23  C   UNL     1      43.980  41.641  56.150  1.00  0.00     0.170 C 
BRANCH  23  24
HETATM   24  O   UNL     1      43.376  41.598  57.445  1.00  0.00    -0.380 OA
HETATM   25  H   UNL     1      43.068  40.680  57.592  1.00  0.00     0.211 HD
ENDBRANCH  23  24
ENDBRANCH  19  23
BRANCH  20  26
HETATM   26  O   UNL     1      43.591  44.444  56.829  1.00  0.00    -0.380 OA
HETATM   27  H   UNL     1      43.252  44.079  55.994  1.00  0.00     0.211 HD
ENDBRANCH  20  26
BRANCH  21  28
HETATM   28  O   UNL     1      45.783  45.994  57.823  1.00  0.00    -0.380 OA
HETATM   29  H   UNL     1      46.422  46.669  57.520  1.00  0.00     0.211 HD
ENDBRANCH  21  28
BRANCH  22  30
HETATM   30  O   UNL     1      47.424  46.083  55.489  1.00  0.00    -0.378 OA
HETATM   31  H   UNL     1      48.159  45.507  55.774  1.00  0.00     0.211 HD
ENDBRANCH  22  30
ENDBRANCH   1  17
TORSDOF 12
ENDMDL
