MODEL 1
REMARK VINA RESULT:    -4.818      0.000      0.000
REMARK INTER + INTRA:          -8.843
REMARK INTER:                  -7.212
REMARK INTRA:                  -1.631
REMARK UNBOUND:                -1.631
REMARK  11 active torsions:
REMARK  status: ('A' for Active; 'I' for Inactive)
REMARK    1  A    between atoms: S_1  and  C_17 
REMARK    2  A    between atoms: O_3  and  C_16 
REMARK    3  A    between atoms: O_3  and  C_18 
REMARK    4  A    between atoms: O_4  and  C_12 
REMARK    5  A    between atoms: O_5  and  C_14 
REMARK    6  A    between atoms: O_6  and  C_15 
REMARK    7  A    between atoms: O_10  and  C_19 
REMARK    8  A    between atoms: O_11  and  C_20 
REMARK    9  A    between atoms: C_13  and  C_17 
REMARK   10  A    between atoms: C_18  and  C_19 
REMARK   11  A    between atoms: C_19  and  C_20 
ROOT
HETATM    1  O   UNL     1      41.902  47.272  36.313  1.00  0.00    -0.328 OA
HETATM    2  C   UNL     1      41.757  46.301  38.554  1.00  0.00     0.168 C 
HETATM    3  C   UNL     1      42.375  47.412  37.679  1.00  0.00     0.166 C 
HETATM    4  C   UNL     1      40.222  46.330  38.434  1.00  0.00     0.172 C 
HETATM    5  C   UNL     1      39.760  46.318  36.975  1.00  0.00     0.197 C 
HETATM    6  C   UNL     1      40.490  47.420  36.189  1.00  0.00     0.266 C 
ENDROOT
BRANCH   6   7
HETATM    7  O   UNL     1      40.057  48.709  36.643  1.00  0.00    -0.326 OA
BRANCH   7   8
HETATM    8  C   UNL     1      40.285  49.717  35.654  1.00  0.00     0.177 C 
BRANCH   8   9
HETATM    9  C   UNL     1      40.971  50.934  36.273  1.00  0.00     0.170 C 
BRANCH   9  10
HETATM   10  O   UNL     1      42.386  50.700  36.360  1.00  0.00    -0.380 OA
HETATM   11  H   UNL     1      42.642  51.144  37.196  1.00  0.00     0.211 HD
ENDBRANCH   9  10
BRANCH   9  12
HETATM   12  C   UNL     1      40.433  51.226  37.677  1.00  0.00     0.169 C 
BRANCH  12  13
HETATM   13  O   UNL     1      41.315  50.641  38.644  1.00  0.00    -0.380 OA
HETATM   14  H   UNL     1      41.944  51.363  38.850  1.00  0.00     0.211 HD
ENDBRANCH  12  13
ENDBRANCH   9  12
ENDBRANCH   8   9
ENDBRANCH   7   8
ENDBRANCH   6   7
BRANCH   5  15
HETATM   15  O   UNL     1      38.337  46.509  36.878  1.00  0.00    -0.378 OA
HETATM   16  H   UNL     1      38.204  47.475  36.838  1.00  0.00     0.211 HD
ENDBRANCH   5  15
BRANCH   3  17
HETATM   17  C   UNL     1      43.898  47.377  37.598  1.00  0.00     0.178 C 
BRANCH  17  18
HETATM   18  S   UNL     1      44.655  48.716  38.476  1.00  0.00     0.118 S 
HETATM   19  O   UNL     1      43.664  49.017  39.506  1.00  0.00    -0.594 OA
HETATM   20  O   UNL     1      44.816  49.752  37.460  1.00  0.00    -0.594 OA
HETATM   21  O   UNL     1      45.897  48.132  38.969  1.00  0.00    -0.594 OA
ENDBRANCH  17  18
ENDBRANCH   3  17
BRANCH   4  22
HETATM   22  O   UNL     1      39.688  45.197  39.146  1.00  0.00    -0.380 OA
HETATM   23  H   UNL     1      40.488  44.726  39.461  1.00  0.00     0.211 HD
ENDBRANCH   4  22
BRANCH   2  24
HETATM   24  O   UNL     1      42.016  46.377  39.959  1.00  0.00    -0.380 OA
HETATM   25  H   UNL     1      42.991  46.472  40.118  1.00  0.00     0.211 HD
ENDBRANCH   2  24
TORSDOF 11
ENDMDL
MODEL 2
REMARK VINA RESULT:    -4.596      1.690      2.468
REMARK INTER + INTRA:          -8.511
REMARK INTER:                  -7.057
REMARK INTRA:                  -1.454
REMARK UNBOUND:                -1.631
REMARK  11 active torsions:
REMARK  status: ('A' for Active; 'I' for Inactive)
REMARK    1  A    between atoms: S_1  and  C_17 
REMARK    2  A    between atoms: O_3  and  C_16 
REMARK    3  A    between atoms: O_3  and  C_18 
REMARK    4  A    between atoms: O_4  and  C_12 
REMARK    5  A    between atoms: O_5  and  C_14 
REMARK    6  A    between atoms: O_6  and  C_15 
REMARK    7  A    between atoms: O_10  and  C_19 
REMARK    8  A    between atoms: O_11  and  C_20 
REMARK    9  A    between atoms: C_13  and  C_17 
REMARK   10  A    between atoms: C_18  and  C_19 
REMARK   11  A    between atoms: C_19  and  C_20 
ROOT
HETATM    1  O   UNL     1      42.367  47.024  37.558  1.00  0.00    -0.328 OA
HETATM    2  C   UNL     1      40.310  46.164  38.564  1.00  0.00     0.168 C 
HETATM    3  C   UNL     1      41.279  47.361  38.459  1.00  0.00     0.166 C 
HETATM    4  C   UNL     1      39.834  45.748  37.159  1.00  0.00     0.172 C 
HETATM    5  C   UNL     1      41.003  45.533  36.197  1.00  0.00     0.197 C 
HETATM    6  C   UNL     1      41.934  46.757  36.228  1.00  0.00     0.266 C 
ENDROOT
BRANCH   6   7
HETATM    7  O   UNL     1      41.266  47.890  35.657  1.00  0.00    -0.326 OA
BRANCH   7   8
HETATM    8  C   UNL     1      42.097  48.569  34.711  1.00  0.00     0.177 C 
BRANCH   8   9
HETATM    9  C   UNL     1      42.462  49.964  35.218  1.00  0.00     0.170 C 
BRANCH   9  10
HETATM   10  O   UNL     1      43.123  49.861  36.488  1.00  0.00    -0.380 OA
HETATM   11  H   UNL     1      42.723  50.583  37.016  1.00  0.00     0.211 HD
ENDBRANCH   9  10
BRANCH   9  12
HETATM   12  C   UNL     1      41.218  50.843  35.380  1.00  0.00     0.169 C 
BRANCH  12  13
HETATM   13  O   UNL     1      41.374  51.659  36.549  1.00  0.00    -0.380 OA
HETATM   14  H   UNL     1      41.852  51.077  37.175  1.00  0.00     0.211 HD
ENDBRANCH  12  13
ENDBRANCH   9  12
ENDBRANCH   8   9
ENDBRANCH   7   8
ENDBRANCH   6   7
BRANCH   5  15
HETATM   15  O   UNL     1      40.539  45.305  34.854  1.00  0.00    -0.378 OA
HETATM   16  H   UNL     1      40.868  44.419  34.610  1.00  0.00     0.211 HD
ENDBRANCH   5  15
BRANCH   3  17
HETATM   17  C   UNL     1      41.936  47.757  39.777  1.00  0.00     0.178 C 
BRANCH  17  18
HETATM   18  S   UNL     1      42.441  49.455  39.800  1.00  0.00     0.118 S 
HETATM   19  O   UNL     1      43.836  49.374  39.375  1.00  0.00    -0.594 OA
HETATM   20  O   UNL     1      42.247  49.857  41.191  1.00  0.00    -0.594 OA
HETATM   21  O   UNL     1      41.540  50.084  38.841  1.00  0.00    -0.594 OA
ENDBRANCH  17  18
ENDBRANCH   3  17
BRANCH   4  22
HETATM   22  O   UNL     1      39.049  44.547  37.282  1.00  0.00    -0.380 OA
HETATM   23  H   UNL     1      38.307  44.691  36.657  1.00  0.00     0.211 HD
ENDBRANCH   4  22
BRANCH   2  24
HETATM   24  O   UNL     1      39.107  46.381  39.309  1.00  0.00    -0.380 OA
HETATM   25  H   UNL     1      38.874  45.562  39.818  1.00  0.00     0.211 HD
ENDBRANCH   2  24
TORSDOF 11
ENDMDL
MODEL 3
REMARK VINA RESULT:    -4.556      9.970     12.689
REMARK INTER + INTRA:          -8.451
REMARK INTER:                  -7.057
REMARK INTRA:                  -1.394
REMARK UNBOUND:                -1.631
REMARK  11 active torsions:
REMARK  status: ('A' for Active; 'I' for Inactive)
REMARK    1  A    between atoms: S_1  and  C_17 
REMARK    2  A    between atoms: O_3  and  C_16 
REMARK    3  A    between atoms: O_3  and  C_18 
REMARK    4  A    between atoms: O_4  and  C_12 
REMARK    5  A    between atoms: O_5  and  C_14 
REMARK    6  A    between atoms: O_6  and  C_15 
REMARK    7  A    between atoms: O_10  and  C_19 
REMARK    8  A    between atoms: O_11  and  C_20 
REMARK    9  A    between atoms: C_13  and  C_17 
REMARK   10  A    between atoms: C_18  and  C_19 
REMARK   11  A    between atoms: C_19  and  C_20 
ROOT
HETATM    1  O   UNL     1      44.163  40.149  45.634  1.00  0.00    -0.328 OA
HETATM    2  C   UNL     1      42.161  40.688  44.336  1.00  0.00     0.168 C 
HETATM    3  C   UNL     1      43.625  40.201  44.287  1.00  0.00     0.166 C 
HETATM    4  C   UNL     1      41.342  39.796  45.288  1.00  0.00     0.172 C 
HETATM    5  C   UNL     1      42.009  39.654  46.657  1.00  0.00     0.197 C 
HETATM    6  C   UNL     1      43.477  39.231  46.480  1.00  0.00     0.266 C 
ENDROOT
BRANCH   6   7
HETATM    7  O   UNL     1      43.539  37.895  45.962  1.00  0.00    -0.326 OA
BRANCH   7   8
HETATM    8  C   UNL     1      44.537  37.119  46.632  1.00  0.00     0.177 C 
BRANCH   8   9
HETATM    9  C   UNL     1      44.781  37.656  48.042  1.00  0.00     0.170 C 
BRANCH   9  10
HETATM   10  O   UNL     1      46.187  37.628  48.333  1.00  0.00    -0.380 OA
HETATM   11  H   UNL     1      46.567  37.117  47.588  1.00  0.00     0.211 HD
ENDBRANCH   9  10
BRANCH   9  12
HETATM   12  C   UNL     1      44.044  36.823  49.095  1.00  0.00     0.169 C 
BRANCH  12  13
HETATM   13  O   UNL     1      42.794  36.384  48.548  1.00  0.00    -0.380 OA
HETATM   14  H   UNL     1      42.839  35.409  48.618  1.00  0.00     0.211 HD
ENDBRANCH  12  13
ENDBRANCH   9  12
ENDBRANCH   8   9
ENDBRANCH   7   8
ENDBRANCH   6   7
BRANCH   5  15
HETATM   15  O   UNL     1      41.318  38.692  47.475  1.00  0.00    -0.378 OA
HETATM   16  H   UNL     1      40.597  38.343  46.917  1.00  0.00     0.211 HD
ENDBRANCH   5  15
BRANCH   3  17
HETATM   17  C   UNL     1      44.565  41.106  43.496  1.00  0.00     0.178 C 
BRANCH  17  18
HETATM   18  S   UNL     1      44.483  40.811  41.752  1.00  0.00     0.118 S 
HETATM   19  O   UNL     1      45.880  40.938  41.345  1.00  0.00    -0.594 OA
HETATM   20  O   UNL     1      43.603  41.869  41.260  1.00  0.00    -0.594 OA
HETATM   21  O   UNL     1      43.937  39.461  41.667  1.00  0.00    -0.594 OA
ENDBRANCH  17  18
ENDBRANCH   3  17
BRANCH   4  22
HETATM   22  O   UNL     1      40.024  40.363  45.420  1.00  0.00    -0.380 OA
HETATM   23  H   UNL     1      39.898  40.851  44.579  1.00  0.00     0.211 HD
ENDBRANCH   4  22
BRANCH   2  24
HETATM   24  O   UNL     1      41.439  40.666  43.101  1.00  0.00    -0.380 OA
HETATM   25  H   UNL     1      40.562  40.221  43.231  1.00  0.00     0.211 HD
ENDBRANCH   2  24
TORSDOF 11
ENDMDL
MODEL 4
REMARK VINA RESULT:    -4.481      9.728     12.041
REMARK INTER + INTRA:          -8.338
REMARK INTER:                  -6.980
REMARK INTRA:                  -1.359
REMARK UNBOUND:                -1.631
REMARK  11 active torsions:
REMARK  status: ('A' for Active; 'I' for Inactive)
REMARK    1  A    between atoms: S_1  and  C_17 
REMARK    2  A    between atoms: O_3  and  C_16 
REMARK    3  A    between atoms: O_3  and  C_18 
REMARK    4  A    between atoms: O_4  and  C_12 
REMARK    5  A    between atoms: O_5  and  C_14 
REMARK    6  A    between atoms: O_6  and  C_15 
REMARK    7  A    between atoms: O_10  and  C_19 
REMARK    8  A    between atoms: O_11  and  C_20 
REMARK    9  A    between atoms: C_13  and  C_17 
REMARK   10  A    between atoms: C_18  and  C_19 
REMARK   11  A    between atoms: C_19  and  C_20 
ROOT
HETATM    1  O   UNL     1      43.244  38.317  44.480  1.00  0.00    -0.328 OA
HETATM    2  C   UNL     1      41.757  39.216  46.202  1.00  0.00     0.168 C 
HETATM    3  C   UNL     1      43.091  38.495  45.913  1.00  0.00     0.166 C 
HETATM    4  C   UNL     1      41.690  40.536  45.410  1.00  0.00     0.172 C 
HETATM    5  C   UNL     1      41.990  40.329  43.924  1.00  0.00     0.197 C 
HETATM    6  C   UNL     1      43.303  39.545  43.762  1.00  0.00     0.266 C 
ENDROOT
BRANCH   6   7
HETATM    7  O   UNL     1      44.407  40.352  44.195  1.00  0.00    -0.326 OA
BRANCH   7   8
HETATM    8  C   UNL     1      45.545  40.182  43.345  1.00  0.00     0.177 C 
BRANCH   8   9
HETATM    9  C   UNL     1      45.605  41.291  42.294  1.00  0.00     0.170 C 
BRANCH   9  10
HETATM   10  O   UNL     1      44.956  42.470  42.798  1.00  0.00    -0.380 OA
HETATM   11  H   UNL     1      44.023  42.357  42.519  1.00  0.00     0.211 HD
ENDBRANCH   9  10
BRANCH   9  12
HETATM   12  C   UNL     1      44.915  40.868  40.994  1.00  0.00     0.169 C 
BRANCH  12  13
HETATM   13  O   UNL     1      43.730  41.655  40.818  1.00  0.00    -0.380 OA
HETATM   14  H   UNL     1      43.686  41.796  39.851  1.00  0.00     0.211 HD
ENDBRANCH  12  13
ENDBRANCH   9  12
ENDBRANCH   8   9
ENDBRANCH   7   8
ENDBRANCH   6   7
BRANCH   5  15
HETATM   15  O   UNL     1      42.083  41.588  43.232  1.00  0.00    -0.378 OA
HETATM   16  H   UNL     1      42.873  41.516  42.663  1.00  0.00     0.211 HD
ENDBRANCH   5  15
BRANCH   3  17
HETATM   17  C   UNL     1      43.200  37.101  46.522  1.00  0.00     0.178 C 
BRANCH  17  18
HETATM   18  S   UNL     1      43.750  37.137  48.205  1.00  0.00     0.118 S 
HETATM   19  O   UNL     1      42.501  36.996  48.948  1.00  0.00    -0.594 OA
HETATM   20  O   UNL     1      44.394  38.442  48.333  1.00  0.00    -0.594 OA
HETATM   21  O   UNL     1      44.648  35.991  48.287  1.00  0.00    -0.594 OA
ENDBRANCH  17  18
ENDBRANCH   3  17
BRANCH   4  22
HETATM   22  O   UNL     1      40.380  41.108  45.590  1.00  0.00    -0.380 OA
HETATM   23  H   UNL     1      40.450  41.579  46.447  1.00  0.00     0.211 HD
ENDBRANCH   4  22
BRANCH   2  24
HETATM   24  O   UNL     1      41.515  39.591  47.561  1.00  0.00    -0.380 OA
HETATM   25  H   UNL     1      41.926  38.927  48.172  1.00  0.00     0.211 HD
ENDBRANCH   2  24
TORSDOF 11
ENDMDL
MODEL 5
REMARK VINA RESULT:    -4.460     10.836     13.131
REMARK INTER + INTRA:          -8.308
REMARK INTER:                  -6.965
REMARK INTRA:                  -1.343
REMARK UNBOUND:                -1.631
REMARK  11 active torsions:
REMARK  status: ('A' for Active; 'I' for Inactive)
REMARK    1  A    between atoms: S_1  and  C_17 
REMARK    2  A    between atoms: O_3  and  C_16 
REMARK    3  A    between atoms: O_3  and  C_18 
REMARK    4  A    between atoms: O_4  and  C_12 
REMARK    5  A    between atoms: O_5  and  C_14 
REMARK    6  A    between atoms: O_6  and  C_15 
REMARK    7  A    between atoms: O_10  and  C_19 
REMARK    8  A    between atoms: O_11  and  C_20 
REMARK    9  A    between atoms: C_13  and  C_17 
REMARK   10  A    between atoms: C_18  and  C_19 
REMARK   11  A    between atoms: C_19  and  C_20 
ROOT
HETATM    1  O   UNL     1      41.829  37.891  46.038  1.00  0.00    -0.328 OA
HETATM    2  C   UNL     1      42.140  39.137  48.120  1.00  0.00     0.168 C 
HETATM    3  C   UNL     1      42.698  38.037  47.192  1.00  0.00     0.166 C 
HETATM    4  C   UNL     1      41.948  40.445  47.330  1.00  0.00     0.172 C 
HETATM    5  C   UNL     1      41.142  40.228  46.048  1.00  0.00     0.197 C 
HETATM    6  C   UNL     1      41.749  39.069  45.241  1.00  0.00     0.266 C 
ENDROOT
BRANCH   6   7
HETATM    7  O   UNL     1      43.037  39.450  44.738  1.00  0.00    -0.326 OA
BRANCH   7   8
HETATM    8  C   UNL     1      43.254  38.947  43.416  1.00  0.00     0.177 C 
BRANCH   8   9
HETATM    9  C   UNL     1      44.205  39.860  42.641  1.00  0.00     0.170 C 
BRANCH   9  10
HETATM   10  O   UNL     1      45.542  39.342  42.718  1.00  0.00    -0.380 OA
HETATM   11  H   UNL     1      45.814  39.264  41.780  1.00  0.00     0.211 HD
ENDBRANCH   9  10
BRANCH   9  12
HETATM   12  C   UNL     1      44.195  41.285  43.204  1.00  0.00     0.169 C 
BRANCH  12  13
HETATM   13  O   UNL     1      42.868  41.817  43.098  1.00  0.00    -0.380 OA
HETATM   14  H   UNL     1      42.689  41.803  42.135  1.00  0.00     0.211 HD
ENDBRANCH  12  13
ENDBRANCH   9  12
ENDBRANCH   8   9
ENDBRANCH   7   8
ENDBRANCH   6   7
BRANCH   5  15
HETATM   15  O   UNL     1      41.111  41.421  45.244  1.00  0.00    -0.378 OA
HETATM   16  H   UNL     1      40.216  41.452  44.854  1.00  0.00     0.211 HD
ENDBRANCH   5  15
BRANCH   3  17
HETATM   17  C   UNL     1      42.780  36.654  47.830  1.00  0.00     0.178 C 
BRANCH  17  18
HETATM   18  S   UNL     1      44.266  36.426  48.767  1.00  0.00     0.118 S 
HETATM   19  O   UNL     1      43.829  36.726  50.128  1.00  0.00    -0.594 OA
HETATM   20  O   UNL     1      45.191  37.400  48.193  1.00  0.00    -0.594 OA
HETATM   21  O   UNL     1      44.604  35.029  48.522  1.00  0.00    -0.594 OA
ENDBRANCH  17  18
ENDBRANCH   3  17
BRANCH   4  22
HETATM   22  O   UNL     1      41.296  41.402  48.186  1.00  0.00    -0.380 OA
HETATM   23  H   UNL     1      41.618  42.266  47.854  1.00  0.00     0.211 HD
ENDBRANCH   4  22
BRANCH   2  24
HETATM   24  O   UNL     1      42.954  39.500  49.240  1.00  0.00    -0.380 OA
HETATM   25  H   UNL     1      42.876  38.813  49.950  1.00  0.00     0.211 HD
ENDBRANCH   2  24
TORSDOF 11
ENDMDL
MODEL 6
REMARK VINA RESULT:    -4.314     12.568     14.565
REMARK INTER + INTRA:          -8.088
REMARK INTER:                  -7.294
REMARK INTRA:                  -0.794
REMARK UNBOUND:                -1.631
REMARK  11 active torsions:
REMARK  status: ('A' for Active; 'I' for Inactive)
REMARK    1  A    between atoms: S_1  and  C_17 
REMARK    2  A    between atoms: O_3  and  C_16 
REMARK    3  A    between atoms: O_3  and  C_18 
REMARK    4  A    between atoms: O_4  and  C_12 
REMARK    5  A    between atoms: O_5  and  C_14 
REMARK    6  A    between atoms: O_6  and  C_15 
REMARK    7  A    between atoms: O_10  and  C_19 
REMARK    8  A    between atoms: O_11  and  C_20 
REMARK    9  A    between atoms: C_13  and  C_17 
REMARK   10  A    between atoms: C_18  and  C_19 
REMARK   11  A    between atoms: C_19  and  C_20 
ROOT
HETATM    1  O   UNL     1      43.542  36.848  47.351  1.00  0.00    -0.328 OA
HETATM    2  C   UNL     1      44.141  39.091  48.125  1.00  0.00     0.168 C 
HETATM    3  C   UNL     1      43.818  38.202  46.905  1.00  0.00     0.166 C 
HETATM    4  C   UNL     1      42.998  39.007  49.154  1.00  0.00     0.172 C 
HETATM    5  C   UNL     1      42.643  37.560  49.501  1.00  0.00     0.197 C 
HETATM    6  C   UNL     1      42.409  36.758  48.209  1.00  0.00     0.266 C 
ENDROOT
BRANCH   6   7
HETATM    7  O   UNL     1      41.220  37.224  47.556  1.00  0.00    -0.326 OA
BRANCH   7   8
HETATM    8  C   UNL     1      40.533  36.157  46.894  1.00  0.00     0.177 C 
BRANCH   8   9
HETATM    9  C   UNL     1      39.037  36.456  46.801  1.00  0.00     0.170 C 
BRANCH   9  10
HETATM   10  O   UNL     1      38.838  37.764  46.242  1.00  0.00    -0.380 OA
HETATM   11  H   UNL     1      38.865  38.355  47.023  1.00  0.00     0.211 HD
ENDBRANCH   9  10
BRANCH   9  12
HETATM   12  C   UNL     1      38.369  36.402  48.179  1.00  0.00     0.169 C 
BRANCH  12  13
HETATM   13  O   UNL     1      37.055  36.969  48.080  1.00  0.00    -0.380 OA
HETATM   14  H   UNL     1      36.714  36.616  47.233  1.00  0.00     0.211 HD
ENDBRANCH  12  13
ENDBRANCH   9  12
ENDBRANCH   8   9
ENDBRANCH   7   8
ENDBRANCH   6   7
BRANCH   5  15
HETATM   15  O   UNL     1      41.471  37.497  50.334  1.00  0.00    -0.378 OA
HETATM   16  H   UNL     1      41.054  38.377  50.268  1.00  0.00     0.211 HD
ENDBRANCH   5  15
BRANCH   3  17
HETATM   17  C   UNL     1      44.953  38.085  45.892  1.00  0.00     0.178 C 
BRANCH  17  18
HETATM   18  S   UNL     1      44.748  39.180  44.515  1.00  0.00     0.118 S 
HETATM   19  O   UNL     1      45.547  38.534  43.477  1.00  0.00    -0.594 OA
HETATM   20  O   UNL     1      45.285  40.450  44.998  1.00  0.00    -0.594 OA
HETATM   21  O   UNL     1      43.308  39.163  44.285  1.00  0.00    -0.594 OA
ENDBRANCH  17  18
ENDBRANCH   3  17
BRANCH   4  22
HETATM   22  O   UNL     1      43.396  39.730  50.335  1.00  0.00    -0.380 OA
HETATM   23  H   UNL     1      42.576  40.194  50.608  1.00  0.00     0.211 HD
ENDBRANCH   4  22
BRANCH   2  24
HETATM   24  O   UNL     1      44.304  40.489  47.870  1.00  0.00    -0.380 OA
HETATM   25  H   UNL     1      43.613  41.004  48.362  1.00  0.00     0.211 HD
ENDBRANCH   2  24
TORSDOF 11
ENDMDL
MODEL 7
REMARK VINA RESULT:    -4.194      2.469      5.542
REMARK INTER + INTRA:          -7.909
REMARK INTER:                  -6.492
REMARK INTRA:                  -1.418
REMARK UNBOUND:                -1.631
REMARK  11 active torsions:
REMARK  status: ('A' for Active; 'I' for Inactive)
REMARK    1  A    between atoms: S_1  and  C_17 
REMARK    2  A    between atoms: O_3  and  C_16 
REMARK    3  A    between atoms: O_3  and  C_18 
REMARK    4  A    between atoms: O_4  and  C_12 
REMARK    5  A    between atoms: O_5  and  C_14 
REMARK    6  A    between atoms: O_6  and  C_15 
REMARK    7  A    between atoms: O_10  and  C_19 
REMARK    8  A    between atoms: O_11  and  C_20 
REMARK    9  A    between atoms: C_13  and  C_17 
REMARK   10  A    between atoms: C_18  and  C_19 
REMARK   11  A    between atoms: C_19  and  C_20 
ROOT
HETATM    1  O   UNL     1      42.524  47.529  36.738  1.00  0.00    -0.328 OA
HETATM    2  C   UNL     1      41.658  48.139  38.943  1.00  0.00     0.168 C 
HETATM    3  C   UNL     1      41.784  47.026  37.881  1.00  0.00     0.166 C 
HETATM    4  C   UNL     1      43.054  48.678  39.308  1.00  0.00     0.172 C 
HETATM    5  C   UNL     1      43.858  49.074  38.068  1.00  0.00     0.197 C 
HETATM    6  C   UNL     1      43.858  47.916  37.056  1.00  0.00     0.266 C 
ENDROOT
BRANCH   6   7
HETATM    7  O   UNL     1      44.612  46.813  37.579  1.00  0.00    -0.326 OA
BRANCH   7   8
HETATM    8  C   UNL     1      45.698  46.465  36.716  1.00  0.00     0.177 C 
BRANCH   8   9
HETATM    9  C   UNL     1      47.036  46.647  37.433  1.00  0.00     0.170 C 
BRANCH   9  10
HETATM   10  O   UNL     1      46.806  46.949  38.818  1.00  0.00    -0.380 OA
HETATM   11  H   UNL     1      47.663  46.738  39.245  1.00  0.00     0.211 HD
ENDBRANCH   9  10
BRANCH   9  12
HETATM   12  C   UNL     1      47.854  47.783  36.810  1.00  0.00     0.169 C 
BRANCH  12  13
HETATM   13  O   UNL     1      46.960  48.704  36.172  1.00  0.00    -0.380 OA
HETATM   14  H   UNL     1      46.591  48.189  35.426  1.00  0.00     0.211 HD
ENDBRANCH  12  13
ENDBRANCH   9  12
ENDBRANCH   8   9
ENDBRANCH   7   8
ENDBRANCH   6   7
BRANCH   5  15
HETATM   15  O   UNL     1      45.212  49.420  38.414  1.00  0.00    -0.378 OA
HETATM   16  H   UNL     1      45.214  50.390  38.525  1.00  0.00     0.211 HD
ENDBRANCH   5  15
BRANCH   3  17
HETATM   17  C   UNL     1      40.452  46.527  37.330  1.00  0.00     0.178 C 
BRANCH  17  18
HETATM   18  S   UNL     1      39.701  45.307  38.371  1.00  0.00     0.118 S 
HETATM   19  O   UNL     1      40.841  44.791  39.124  1.00  0.00    -0.594 OA
HETATM   20  O   UNL     1      39.111  44.360  37.428  1.00  0.00    -0.594 OA
HETATM   21  O   UNL     1      38.745  46.081  39.155  1.00  0.00    -0.594 OA
ENDBRANCH  17  18
ENDBRANCH   3  17
BRANCH   4  22
HETATM   22  O   UNL     1      42.890  49.807  40.189  1.00  0.00    -0.380 OA
HETATM   23  H   UNL     1      43.705  50.333  40.044  1.00  0.00     0.211 HD
ENDBRANCH   4  22
BRANCH   2  24
HETATM   24  O   UNL     1      41.071  47.765  40.193  1.00  0.00    -0.380 OA
HETATM   25  H   UNL     1      41.678  47.148  40.679  1.00  0.00     0.211 HD
ENDBRANCH   2  24
TORSDOF 11
ENDMDL
MODEL 8
REMARK VINA RESULT:    -4.161      1.907      4.171
REMARK INTER + INTRA:          -7.860
REMARK INTER:                  -6.410
REMARK INTRA:                  -1.450
REMARK UNBOUND:                -1.631
REMARK  11 active torsions:
REMARK  status: ('A' for Active; 'I' for Inactive)
REMARK    1  A    between atoms: S_1  and  C_17 
REMARK    2  A    between atoms: O_3  and  C_16 
REMARK    3  A    between atoms: O_3  and  C_18 
REMARK    4  A    between atoms: O_4  and  C_12 
REMARK    5  A    between atoms: O_5  and  C_14 
REMARK    6  A    between atoms: O_6  and  C_15 
REMARK    7  A    between atoms: O_10  and  C_19 
REMARK    8  A    between atoms: O_11  and  C_20 
REMARK    9  A    between atoms: C_13  and  C_17 
REMARK   10  A    between atoms: C_18  and  C_19 
REMARK   11  A    between atoms: C_19  and  C_20 
ROOT
HETATM    1  O   UNL     1      40.979  47.975  36.130  1.00  0.00    -0.328 OA
HETATM    2  C   UNL     1      43.398  47.694  36.367  1.00  0.00     0.168 C 
HETATM    3  C   UNL     1      42.064  47.967  37.095  1.00  0.00     0.166 C 
HETATM    4  C   UNL     1      43.294  46.390  35.552  1.00  0.00     0.172 C 
HETATM    5  C   UNL     1      42.063  46.377  34.645  1.00  0.00     0.197 C 
HETATM    6  C   UNL     1      40.809  46.728  35.464  1.00  0.00     0.266 C 
ENDROOT
BRANCH   6   7
HETATM    7  O   UNL     1      40.524  45.672  36.392  1.00  0.00    -0.326 OA
BRANCH   7   8
HETATM    8  C   UNL     1      39.228  45.824  36.977  1.00  0.00     0.177 C 
BRANCH   8   9
HETATM    9  C   UNL     1      39.197  45.225  38.383  1.00  0.00     0.170 C 
BRANCH   9  10
HETATM   10  O   UNL     1      39.159  46.278  39.358  1.00  0.00    -0.380 OA
HETATM   11  H   UNL     1      39.034  47.087  38.819  1.00  0.00     0.211 HD
ENDBRANCH   9  10
BRANCH   9  12
HETATM   12  C   UNL     1      40.430  44.354  38.647  1.00  0.00     0.169 C 
BRANCH  12  13
HETATM   13  O   UNL     1      41.470  45.174  39.195  1.00  0.00    -0.380 OA
HETATM   14  H   UNL     1      42.114  45.252  38.462  1.00  0.00     0.211 HD
ENDBRANCH  12  13
ENDBRANCH   9  12
ENDBRANCH   8   9
ENDBRANCH   7   8
ENDBRANCH   6   7
BRANCH   5  15
HETATM   15  O   UNL     1      41.894  45.094  34.016  1.00  0.00    -0.378 OA
HETATM   16  H   UNL     1      40.961  44.849  34.167  1.00  0.00     0.211 HD
ENDBRANCH   5  15
BRANCH   3  17
HETATM   17  C   UNL     1      42.000  49.315  37.807  1.00  0.00     0.178 C 
BRANCH  17  18
HETATM   18  S   UNL     1      42.446  49.200  39.517  1.00  0.00     0.118 S 
HETATM   19  O   UNL     1      41.868  47.917  39.908  1.00  0.00    -0.594 OA
HETATM   20  O   UNL     1      41.810  50.368  40.122  1.00  0.00    -0.594 OA
HETATM   21  O   UNL     1      43.904  49.234  39.485  1.00  0.00    -0.594 OA
ENDBRANCH  17  18
ENDBRANCH   3  17
BRANCH   4  22
HETATM   22  O   UNL     1      44.500  46.242  34.777  1.00  0.00    -0.380 OA
HETATM   23  H   UNL     1      45.150  45.899  35.426  1.00  0.00     0.211 HD
ENDBRANCH   4  22
BRANCH   2  24
HETATM   24  O   UNL     1      44.552  47.519  37.194  1.00  0.00    -0.380 OA
HETATM   25  H   UNL     1      44.295  47.071  38.041  1.00  0.00     0.211 HD
ENDBRANCH   2  24
TORSDOF 11
ENDMDL
MODEL 9
REMARK VINA RESULT:    -4.044     12.010     14.779
REMARK INTER + INTRA:          -7.685
REMARK INTER:                  -6.259
REMARK INTRA:                  -1.426
REMARK UNBOUND:                -1.631
REMARK  11 active torsions:
REMARK  status: ('A' for Active; 'I' for Inactive)
REMARK    1  A    between atoms: S_1  and  C_17 
REMARK    2  A    between atoms: O_3  and  C_16 
REMARK    3  A    between atoms: O_3  and  C_18 
REMARK    4  A    between atoms: O_4  and  C_12 
REMARK    5  A    between atoms: O_5  and  C_14 
REMARK    6  A    between atoms: O_6  and  C_15 
REMARK    7  A    between atoms: O_10  and  C_19 
REMARK    8  A    between atoms: O_11  and  C_20 
REMARK    9  A    between atoms: C_13  and  C_17 
REMARK   10  A    between atoms: C_18  and  C_19 
REMARK   11  A    between atoms: C_19  and  C_20 
ROOT
HETATM    1  O   UNL     1      44.762  37.585  46.985  1.00  0.00    -0.328 OA
HETATM    2  C   UNL     1      43.811  39.593  48.009  1.00  0.00     0.168 C 
HETATM    3  C   UNL     1      43.946  38.755  46.719  1.00  0.00     0.166 C 
HETATM    4  C   UNL     1      43.267  38.715  49.151  1.00  0.00     0.172 C 
HETATM    5  C   UNL     1      44.071  37.424  49.316  1.00  0.00     0.197 C 
HETATM    6  C   UNL     1      44.196  36.712  47.958  1.00  0.00     0.266 C 
ENDROOT
BRANCH   6   7
HETATM    7  O   UNL     1      42.911  36.229  47.543  1.00  0.00    -0.326 OA
BRANCH   7   8
HETATM    8  C   UNL     1      42.967  34.851  47.161  1.00  0.00     0.177 C 
BRANCH   8   9
HETATM    9  C   UNL     1      41.912  34.543  46.100  1.00  0.00     0.170 C 
BRANCH   9  10
HETATM   10  O   UNL     1      41.637  33.133  46.085  1.00  0.00    -0.380 OA
HETATM   11  H   UNL     1      42.445  32.744  45.689  1.00  0.00     0.211 HD
ENDBRANCH   9  10
BRANCH   9  12
HETATM   12  C   UNL     1      42.380  34.967  44.704  1.00  0.00     0.169 C 
BRANCH  12  13
HETATM   13  O   UNL     1      43.536  35.805  44.837  1.00  0.00    -0.380 OA
HETATM   14  H   UNL     1      43.336  36.569  44.259  1.00  0.00     0.211 HD
ENDBRANCH  12  13
ENDBRANCH   9  12
ENDBRANCH   8   9
ENDBRANCH   7   8
ENDBRANCH   6   7
BRANCH   5  15
HETATM   15  O   UNL     1      43.455  36.545  50.274  1.00  0.00    -0.378 OA
HETATM   16  H   UNL     1      42.633  36.993  50.550  1.00  0.00     0.211 HD
ENDBRANCH   5  15
BRANCH   3  17
HETATM   17  C   UNL     1      44.623  39.483  45.562  1.00  0.00     0.178 C 
BRANCH  17  18
HETATM   18  S   UNL     1      43.507  39.826  44.230  1.00  0.00     0.118 S 
HETATM   19  O   UNL     1      42.373  40.436  44.919  1.00  0.00    -0.594 OA
HETATM   20  O   UNL     1      43.238  38.510  43.654  1.00  0.00    -0.594 OA
HETATM   21  O   UNL     1      44.271  40.731  43.379  1.00  0.00    -0.594 OA
ENDBRANCH  17  18
ENDBRANCH   3  17
BRANCH   4  22
HETATM   22  O   UNL     1      43.290  39.487  50.368  1.00  0.00    -0.380 OA
HETATM   23  H   UNL     1      42.573  40.143  50.238  1.00  0.00     0.211 HD
ENDBRANCH   4  22
BRANCH   2  24
HETATM   24  O   UNL     1      42.922  40.713  47.952  1.00  0.00    -0.380 OA
HETATM   25  H   UNL     1      43.312  41.424  47.380  1.00  0.00     0.211 HD
ENDBRANCH   2  24
TORSDOF 11
ENDMDL
MODEL 10
REMARK VINA RESULT:    -3.928      2.724      4.770
REMARK INTER + INTRA:          -7.511
REMARK INTER:                  -5.608
REMARK INTRA:                  -1.903
REMARK UNBOUND:                -1.631
REMARK  11 active torsions:
REMARK  status: ('A' for Active; 'I' for Inactive)
REMARK    1  A    between atoms: S_1  and  C_17 
REMARK    2  A    between atoms: O_3  and  C_16 
REMARK    3  A    between atoms: O_3  and  C_18 
REMARK    4  A    between atoms: O_4  and  C_12 
REMARK    5  A    between atoms: O_5  and  C_14 
REMARK    6  A    between atoms: O_6  and  C_15 
REMARK    7  A    between atoms: O_10  and  C_19 
REMARK    8  A    between atoms: O_11  and  C_20 
REMARK    9  A    between atoms: C_13  and  C_17 
REMARK   10  A    between atoms: C_18  and  C_19 
REMARK   11  A    between atoms: C_19  and  C_20 
ROOT
HETATM    1  O   UNL     1      40.974  47.768  37.030  1.00  0.00    -0.328 OA
HETATM    2  C   UNL     1      40.121  45.476  37.105  1.00  0.00     0.168 C 
HETATM    3  C   UNL     1      40.770  46.572  36.233  1.00  0.00     0.166 C 
HETATM    4  C   UNL     1      40.974  45.233  38.365  1.00  0.00     0.172 C 
HETATM    5  C   UNL     1      41.283  46.534  39.108  1.00  0.00     0.197 C 
HETATM    6  C   UNL     1      41.860  47.569  38.127  1.00  0.00     0.266 C 
ENDROOT
BRANCH   6   7
HETATM    7  O   UNL     1      43.157  47.148  37.683  1.00  0.00    -0.326 OA
BRANCH   7   8
HETATM    8  C   UNL     1      43.987  48.265  37.353  1.00  0.00     0.177 C 
BRANCH   8   9
HETATM    9  C   UNL     1      44.426  48.197  35.890  1.00  0.00     0.170 C 
BRANCH   9  10
HETATM   10  O   UNL     1      43.336  48.584  35.039  1.00  0.00    -0.380 OA
HETATM   11  H   UNL     1      42.673  48.946  35.664  1.00  0.00     0.211 HD
ENDBRANCH   9  10
BRANCH   9  12
HETATM   12  C   UNL     1      44.873  46.783  35.505  1.00  0.00     0.169 C 
BRANCH  12  13
HETATM   13  O   UNL     1      43.754  46.077  34.953  1.00  0.00    -0.380 OA
HETATM   14  H   UNL     1      44.044  45.859  34.043  1.00  0.00     0.211 HD
ENDBRANCH  12  13
ENDBRANCH   9  12
ENDBRANCH   8   9
ENDBRANCH   7   8
ENDBRANCH   6   7
BRANCH   5  15
HETATM   15  O   UNL     1      42.211  46.311  40.185  1.00  0.00    -0.378 OA
HETATM   16  H   UNL     1      42.671  45.478  39.966  1.00  0.00     0.211 HD
ENDBRANCH   5  15
BRANCH   3  17
HETATM   17  C   UNL     1      39.929  47.005  35.036  1.00  0.00     0.178 C 
BRANCH  17  18
HETATM   18  S   UNL     1      40.595  46.436  33.497  1.00  0.00     0.118 S 
HETATM   19  O   UNL     1      41.645  47.415  33.227  1.00  0.00    -0.594 OA
HETATM   20  O   UNL     1      39.457  46.492  32.583  1.00  0.00    -0.594 OA
HETATM   21  O   UNL     1      41.070  45.094  33.815  1.00  0.00    -0.594 OA
ENDBRANCH  17  18
ENDBRANCH   3  17
BRANCH   4  22
HETATM   22  O   UNL     1      40.269  44.314  39.221  1.00  0.00    -0.380 OA
HETATM   23  H   UNL     1      39.327  44.545  39.080  1.00  0.00     0.211 HD
ENDBRANCH   4  22
BRANCH   2  24
HETATM   24  O   UNL     1      39.977  44.185  36.506  1.00  0.00    -0.380 OA
HETATM   25  H   UNL     1      39.693  43.525  37.190  1.00  0.00     0.211 HD
ENDBRANCH   2  24
TORSDOF 11
ENDMDL
