MODEL 1
REMARK VINA RESULT:    -4.687      0.000      0.000
REMARK INTER + INTRA:          -8.581
REMARK INTER:                  -7.016
REMARK INTRA:                  -1.565
REMARK UNBOUND:                -1.565
REMARK  11 active torsions:
REMARK  status: ('A' for Active; 'I' for Inactive)
REMARK    1  A    between atoms: S_1  and  C_17 
REMARK    2  A    between atoms: O_3  and  C_16 
REMARK    3  A    between atoms: O_3  and  C_18 
REMARK    4  A    between atoms: O_4  and  C_12 
REMARK    5  A    between atoms: O_5  and  C_14 
REMARK    6  A    between atoms: O_6  and  C_15 
REMARK    7  A    between atoms: O_10  and  C_19 
REMARK    8  A    between atoms: O_11  and  C_20 
REMARK    9  A    between atoms: C_13  and  C_17 
REMARK   10  A    between atoms: C_18  and  C_19 
REMARK   11  A    between atoms: C_19  and  C_20 
ROOT
HETATM    1  O   UNL     1      41.922  47.211  36.210  1.00  0.00    -0.328 OA
HETATM    2  C   UNL     1      41.757  46.339  38.490  1.00  0.00     0.168 C 
HETATM    3  C   UNL     1      42.405  47.393  37.567  1.00  0.00     0.166 C 
HETATM    4  C   UNL     1      40.222  46.411  38.373  1.00  0.00     0.172 C 
HETATM    5  C   UNL     1      39.755  46.351  36.918  1.00  0.00     0.197 C 
HETATM    6  C   UNL     1      40.515  47.396  36.084  1.00  0.00     0.266 C 
ENDROOT
BRANCH   6   7
HETATM    7  O   UNL     1      40.123  48.716  36.484  1.00  0.00    -0.326 OA
BRANCH   7   8
HETATM    8  C   UNL     1      40.437  49.685  35.479  1.00  0.00     0.177 C 
BRANCH   8   9
HETATM    9  C   UNL     1      40.995  50.958  36.113  1.00  0.00     0.170 C 
BRANCH   9  10
HETATM   10  O   UNL     1      42.399  50.797  36.368  1.00  0.00    -0.380 OA
HETATM   11  H   UNL     1      42.487  51.011  37.321  1.00  0.00     0.211 HD
ENDBRANCH   9  10
BRANCH   9  12
HETATM   12  C   UNL     1      40.289  51.282  37.433  1.00  0.00     0.169 C 
BRANCH  12  13
HETATM   13  O   UNL     1      41.112  50.843  38.521  1.00  0.00    -0.380 OA
HETATM   14  H   UNL     1      40.906  51.476  39.239  1.00  0.00     0.211 HD
ENDBRANCH  12  13
ENDBRANCH   9  12
ENDBRANCH   8   9
ENDBRANCH   7   8
ENDBRANCH   6   7
BRANCH   5  15
HETATM   15  O   UNL     1      38.338  46.582  36.817  1.00  0.00    -0.378 OA
HETATM   16  H   UNL     1      37.926  45.697  36.845  1.00  0.00     0.211 HD
ENDBRANCH   5  15
BRANCH   3  17
HETATM   17  C   UNL     1      43.926  47.308  37.484  1.00  0.00     0.178 C 
BRANCH  17  18
HETATM   18  S   UNL     1      44.721  48.775  38.078  1.00  0.00     0.118 S 
HETATM   19  O   UNL     1      43.656  49.424  38.838  1.00  0.00    -0.594 OA
HETATM   20  O   UNL     1      45.117  49.475  36.859  1.00  0.00    -0.594 OA
HETATM   21  O   UNL     1      45.822  48.255  38.882  1.00  0.00    -0.594 OA
ENDBRANCH  17  18
ENDBRANCH   3  17
BRANCH   4  22
HETATM   22  O   UNL     1      39.658  45.325  39.134  1.00  0.00    -0.380 OA
HETATM   23  H   UNL     1      39.735  45.630  40.063  1.00  0.00     0.211 HD
ENDBRANCH   4  22
BRANCH   2  24
HETATM   24  O   UNL     1      42.024  46.467  39.890  1.00  0.00    -0.380 OA
HETATM   25  H   UNL     1      41.358  47.073  40.307  1.00  0.00     0.211 HD
ENDBRANCH   2  24
TORSDOF 11
ENDMDL
MODEL 2
REMARK VINA RESULT:    -4.309      9.407     12.526
REMARK INTER + INTRA:          -8.016
REMARK INTER:                  -7.473
REMARK INTRA:                  -0.543
REMARK UNBOUND:                -1.565
REMARK  11 active torsions:
REMARK  status: ('A' for Active; 'I' for Inactive)
REMARK    1  A    between atoms: S_1  and  C_17 
REMARK    2  A    between atoms: O_3  and  C_16 
REMARK    3  A    between atoms: O_3  and  C_18 
REMARK    4  A    between atoms: O_4  and  C_12 
REMARK    5  A    between atoms: O_5  and  C_14 
REMARK    6  A    between atoms: O_6  and  C_15 
REMARK    7  A    between atoms: O_10  and  C_19 
REMARK    8  A    between atoms: O_11  and  C_20 
REMARK    9  A    between atoms: C_13  and  C_17 
REMARK   10  A    between atoms: C_18  and  C_19 
REMARK   11  A    between atoms: C_19  and  C_20 
ROOT
HETATM    1  O   UNL     1      43.290  39.344  44.027  1.00  0.00    -0.328 OA
HETATM    2  C   UNL     1      43.569  41.305  42.590  1.00  0.00     0.168 C 
HETATM    3  C   UNL     1      42.867  40.720  43.835  1.00  0.00     0.166 C 
HETATM    4  C   UNL     1      45.095  41.148  42.726  1.00  0.00     0.172 C 
HETATM    5  C   UNL     1      45.497  39.711  43.062  1.00  0.00     0.197 C 
HETATM    6  C   UNL     1      44.687  39.214  44.272  1.00  0.00     0.266 C 
ENDROOT
BRANCH   6   7
HETATM    7  O   UNL     1      45.082  39.933  45.449  1.00  0.00    -0.326 OA
BRANCH   7   8
HETATM    8  C   UNL     1      44.289  39.561  46.581  1.00  0.00     0.177 C 
BRANCH   8   9
HETATM    9  C   UNL     1      44.405  38.061  46.851  1.00  0.00     0.170 C 
BRANCH   9  10
HETATM   10  O   UNL     1      43.138  37.427  46.616  1.00  0.00    -0.380 OA
HETATM   11  H   UNL     1      43.379  36.499  46.411  1.00  0.00     0.211 HD
ENDBRANCH   9  10
BRANCH   9  12
HETATM   12  C   UNL     1      44.834  37.784  48.296  1.00  0.00     0.169 C 
BRANCH  12  13
HETATM   13  O   UNL     1      46.265  37.733  48.354  1.00  0.00    -0.380 OA
HETATM   14  H   UNL     1      46.497  38.441  48.990  1.00  0.00     0.211 HD
ENDBRANCH  12  13
ENDBRANCH   9  12
ENDBRANCH   8   9
ENDBRANCH   7   8
ENDBRANCH   6   7
BRANCH   5  15
HETATM   15  O   UNL     1      46.905  39.617  43.344  1.00  0.00    -0.378 OA
HETATM   16  H   UNL     1      47.248  40.528  43.273  1.00  0.00     0.211 HD
ENDBRANCH   5  15
BRANCH   3  17
HETATM   17  C   UNL     1      41.345  40.679  43.739  1.00  0.00     0.178 C 
BRANCH  17  18
HETATM   18  S   UNL     1      40.571  40.474  45.319  1.00  0.00     0.118 S 
HETATM   19  O   UNL     1      40.869  39.080  45.637  1.00  0.00    -0.594 OA
HETATM   20  O   UNL     1      39.162  40.753  45.055  1.00  0.00    -0.594 OA
HETATM   21  O   UNL     1      41.253  41.456  46.154  1.00  0.00    -0.594 OA
ENDBRANCH  17  18
ENDBRANCH   3  17
BRANCH   4  22
HETATM   22  O   UNL     1      45.706  41.572  41.492  1.00  0.00    -0.380 OA
HETATM   23  H   UNL     1      44.967  41.986  40.999  1.00  0.00     0.211 HD
ENDBRANCH   4  22
BRANCH   2  24
HETATM   24  O   UNL     1      43.364  42.698  42.339  1.00  0.00    -0.380 OA
HETATM   25  H   UNL     1      43.055  43.149  43.167  1.00  0.00     0.211 HD
ENDBRANCH   2  24
TORSDOF 11
ENDMDL
MODEL 3
REMARK VINA RESULT:    -4.308     20.817     23.283
REMARK INTER + INTRA:          -8.014
REMARK INTER:                  -6.483
REMARK INTRA:                  -1.531
REMARK UNBOUND:                -1.565
REMARK  11 active torsions:
REMARK  status: ('A' for Active; 'I' for Inactive)
REMARK    1  A    between atoms: S_1  and  C_17 
REMARK    2  A    between atoms: O_3  and  C_16 
REMARK    3  A    between atoms: O_3  and  C_18 
REMARK    4  A    between atoms: O_4  and  C_12 
REMARK    5  A    between atoms: O_5  and  C_14 
REMARK    6  A    between atoms: O_6  and  C_15 
REMARK    7  A    between atoms: O_10  and  C_19 
REMARK    8  A    between atoms: O_11  and  C_20 
REMARK    9  A    between atoms: C_13  and  C_17 
REMARK   10  A    between atoms: C_18  and  C_19 
REMARK   11  A    between atoms: C_19  and  C_20 
ROOT
HETATM    1  O   UNL     1      39.063  66.981  50.906  1.00  0.00    -0.328 OA
HETATM    2  C   UNL     1      40.054  64.783  51.323  1.00  0.00     0.168 C 
HETATM    3  C   UNL     1      39.329  65.998  51.941  1.00  0.00     0.166 C 
HETATM    4  C   UNL     1      39.232  64.225  50.146  1.00  0.00     0.172 C 
HETATM    5  C   UNL     1      38.853  65.315  49.142  1.00  0.00     0.197 C 
HETATM    6  C   UNL     1      38.203  66.498  49.879  1.00  0.00     0.266 C 
ENDROOT
BRANCH   6   7
HETATM    7  O   UNL     1      36.929  66.102  50.404  1.00  0.00    -0.326 OA
BRANCH   7   8
HETATM    8  C   UNL     1      36.044  67.219  50.531  1.00  0.00     0.177 C 
BRANCH   8   9
HETATM    9  C   UNL     1      35.213  67.106  51.809  1.00  0.00     0.170 C 
BRANCH   9  10
HETATM   10  O   UNL     1      35.906  67.741  52.894  1.00  0.00    -0.380 OA
HETATM   11  H   UNL     1      36.791  67.318  52.882  1.00  0.00     0.211 HD
ENDBRANCH   9  10
BRANCH   9  12
HETATM   12  C   UNL     1      34.951  65.643  52.179  1.00  0.00     0.169 C 
BRANCH  12  13
HETATM   13  O   UNL     1      36.123  65.106  52.806  1.00  0.00    -0.380 OA
HETATM   14  H   UNL     1      35.904  65.123  53.760  1.00  0.00     0.211 HD
ENDBRANCH  12  13
ENDBRANCH   9  12
ENDBRANCH   8   9
ENDBRANCH   7   8
ENDBRANCH   6   7
BRANCH   5  15
HETATM   15  O   UNL     1      37.953  64.809  48.138  1.00  0.00    -0.378 OA
HETATM   16  H   UNL     1      38.056  63.839  48.160  1.00  0.00     0.211 HD
ENDBRANCH   5  15
BRANCH   3  17
HETATM   17  C   UNL     1      40.128  66.729  53.016  1.00  0.00     0.178 C 
BRANCH  17  18
HETATM   18  S   UNL     1      39.102  67.357  54.315  1.00  0.00     0.118 S 
HETATM   19  O   UNL     1      37.998  66.401  54.334  1.00  0.00    -0.594 OA
HETATM   20  O   UNL     1      38.744  68.697  53.859  1.00  0.00    -0.594 OA
HETATM   21  O   UNL     1      39.976  67.311  55.482  1.00  0.00    -0.594 OA
ENDBRANCH  17  18
ENDBRANCH   3  17
BRANCH   4  22
HETATM   22  O   UNL     1      40.001  63.189  49.505  1.00  0.00    -0.380 OA
HETATM   23  H   UNL     1      40.402  62.702  50.257  1.00  0.00     0.211 HD
ENDBRANCH   4  22
BRANCH   2  24
HETATM   24  O   UNL     1      40.268  63.662  52.185  1.00  0.00    -0.380 OA
HETATM   25  H   UNL     1      39.705  63.748  52.997  1.00  0.00     0.211 HD
ENDBRANCH   2  24
TORSDOF 11
ENDMDL
MODEL 4
REMARK VINA RESULT:    -4.301     11.095     13.800
REMARK INTER + INTRA:          -8.003
REMARK INTER:                  -6.834
REMARK INTRA:                  -1.170
REMARK UNBOUND:                -1.565
REMARK  11 active torsions:
REMARK  status: ('A' for Active; 'I' for Inactive)
REMARK    1  A    between atoms: S_1  and  C_17 
REMARK    2  A    between atoms: O_3  and  C_16 
REMARK    3  A    between atoms: O_3  and  C_18 
REMARK    4  A    between atoms: O_4  and  C_12 
REMARK    5  A    between atoms: O_5  and  C_14 
REMARK    6  A    between atoms: O_6  and  C_15 
REMARK    7  A    between atoms: O_10  and  C_19 
REMARK    8  A    between atoms: O_11  and  C_20 
REMARK    9  A    between atoms: C_13  and  C_17 
REMARK   10  A    between atoms: C_18  and  C_19 
REMARK   11  A    between atoms: C_19  and  C_20 
ROOT
HETATM    1  O   UNL     1      42.528  39.178  46.814  1.00  0.00    -0.328 OA
HETATM    2  C   UNL     1      43.860  37.612  48.140  1.00  0.00     0.168 C 
HETATM    3  C   UNL     1      42.576  37.813  47.306  1.00  0.00     0.166 C 
HETATM    4  C   UNL     1      45.095  38.006  47.308  1.00  0.00     0.172 C 
HETATM    5  C   UNL     1      44.951  39.399  46.693  1.00  0.00     0.197 C 
HETATM    6  C   UNL     1      43.610  39.503  45.947  1.00  0.00     0.266 C 
ENDROOT
BRANCH   6   7
HETATM    7  O   UNL     1      43.629  38.653  44.792  1.00  0.00    -0.326 OA
BRANCH   7   8
HETATM    8  C   UNL     1      43.098  39.317  43.642  1.00  0.00     0.177 C 
BRANCH   8   9
HETATM    9  C   UNL     1      43.328  40.825  43.736  1.00  0.00     0.170 C 
BRANCH   9  10
HETATM   10  O   UNL     1      42.180  41.523  43.230  1.00  0.00    -0.380 OA
HETATM   11  H   UNL     1      41.437  41.154  43.752  1.00  0.00     0.211 HD
ENDBRANCH   9  10
BRANCH   9  12
HETATM   12  C   UNL     1      44.559  41.254  42.931  1.00  0.00     0.169 C 
BRANCH  12  13
HETATM   13  O   UNL     1      45.517  40.188  42.943  1.00  0.00    -0.380 OA
HETATM   14  H   UNL     1      46.154  40.456  43.637  1.00  0.00     0.211 HD
ENDBRANCH  12  13
ENDBRANCH   9  12
ENDBRANCH   8   9
ENDBRANCH   7   8
ENDBRANCH   6   7
BRANCH   5  15
HETATM   15  O   UNL     1      46.036  39.685  45.791  1.00  0.00    -0.378 OA
HETATM   16  H   UNL     1      45.834  40.560  45.407  1.00  0.00     0.211 HD
ENDBRANCH   5  15
BRANCH   3  17
HETATM   17  C   UNL     1      41.280  37.602  48.082  1.00  0.00     0.178 C 
BRANCH  17  18
HETATM   18  S   UNL     1      40.037  36.788  47.118  1.00  0.00     0.118 S 
HETATM   19  O   UNL     1      39.325  37.909  46.511  1.00  0.00    -0.594 OA
HETATM   20  O   UNL     1      39.267  36.037  48.107  1.00  0.00    -0.594 OA
HETATM   21  O   UNL     1      40.814  35.976  46.189  1.00  0.00    -0.594 OA
ENDBRANCH  17  18
ENDBRANCH   3  17
BRANCH   4  22
HETATM   22  O   UNL     1      46.255  37.943  48.159  1.00  0.00    -0.380 OA
HETATM   23  H   UNL     1      47.005  37.985  47.529  1.00  0.00     0.211 HD
ENDBRANCH   4  22
BRANCH   2  24
HETATM   24  O   UNL     1      44.128  36.279  48.586  1.00  0.00    -0.380 OA
HETATM   25  H   UNL     1      43.413  35.980  49.205  1.00  0.00     0.211 HD
ENDBRANCH   2  24
TORSDOF 11
ENDMDL
MODEL 5
REMARK VINA RESULT:    -4.226      9.825     12.111
REMARK INTER + INTRA:          -7.891
REMARK INTER:                  -6.083
REMARK INTRA:                  -1.808
REMARK UNBOUND:                -1.565
REMARK  11 active torsions:
REMARK  status: ('A' for Active; 'I' for Inactive)
REMARK    1  A    between atoms: S_1  and  C_17 
REMARK    2  A    between atoms: O_3  and  C_16 
REMARK    3  A    between atoms: O_3  and  C_18 
REMARK    4  A    between atoms: O_4  and  C_12 
REMARK    5  A    between atoms: O_5  and  C_14 
REMARK    6  A    between atoms: O_6  and  C_15 
REMARK    7  A    between atoms: O_10  and  C_19 
REMARK    8  A    between atoms: O_11  and  C_20 
REMARK    9  A    between atoms: C_13  and  C_17 
REMARK   10  A    between atoms: C_18  and  C_19 
REMARK   11  A    between atoms: C_19  and  C_20 
ROOT
HETATM    1  O   UNL     1      49.297  39.720  40.607  1.00  0.00    -0.328 OA
HETATM    2  C   UNL     1      48.066  37.821  41.536  1.00  0.00     0.168 C 
HETATM    3  C   UNL     1      47.964  39.188  40.826  1.00  0.00     0.166 C 
HETATM    4  C   UNL     1      48.976  36.876  40.730  1.00  0.00     0.172 C 
HETATM    5  C   UNL     1      50.324  37.520  40.401  1.00  0.00     0.197 C 
HETATM    6  C   UNL     1      50.099  38.901  39.761  1.00  0.00     0.266 C 
ENDROOT
BRANCH   6   7
HETATM    7  O   UNL     1      49.503  38.745  38.466  1.00  0.00    -0.326 OA
BRANCH   7   8
HETATM    8  C   UNL     1      49.979  39.733  37.547  1.00  0.00     0.177 C 
BRANCH   8   9
HETATM    9  C   UNL     1      48.823  40.587  37.028  1.00  0.00     0.170 C 
BRANCH   9  10
HETATM   10  O   UNL     1      48.202  41.279  38.123  1.00  0.00    -0.380 OA
HETATM   11  H   UNL     1      47.254  41.047  38.035  1.00  0.00     0.211 HD
ENDBRANCH   9  10
BRANCH   9  12
HETATM   12  C   UNL     1      47.765  39.731  36.325  1.00  0.00     0.169 C 
BRANCH  12  13
HETATM   13  O   UNL     1      46.850  39.225  37.305  1.00  0.00    -0.380 OA
HETATM   14  H   UNL     1      47.376  38.558  37.792  1.00  0.00     0.211 HD
ENDBRANCH  12  13
ENDBRANCH   9  12
ENDBRANCH   8   9
ENDBRANCH   7   8
ENDBRANCH   6   7
BRANCH   5  15
HETATM   15  O   UNL     1      51.096  36.690  39.513  1.00  0.00    -0.378 OA
HETATM   16  H   UNL     1      51.947  37.153  39.396  1.00  0.00     0.211 HD
ENDBRANCH   5  15
BRANCH   3  17
HETATM   17  C   UNL     1      47.213  40.255  41.616  1.00  0.00     0.178 C 
BRANCH  17  18
HETATM   18  S   UNL     1      45.573  40.524  41.004  1.00  0.00     0.118 S 
HETATM   19  O   UNL     1      45.771  40.510  39.557  1.00  0.00    -0.594 OA
HETATM   20  O   UNL     1      45.203  41.823  41.559  1.00  0.00    -0.594 OA
HETATM   21  O   UNL     1      44.828  39.387  41.534  1.00  0.00    -0.594 OA
ENDBRANCH  17  18
ENDBRANCH   3  17
BRANCH   4  22
HETATM   22  O   UNL     1      49.163  35.666  41.490  1.00  0.00    -0.380 OA
HETATM   23  H   UNL     1      48.657  34.996  40.983  1.00  0.00     0.211 HD
ENDBRANCH   4  22
BRANCH   2  24
HETATM   24  O   UNL     1      46.843  37.097  41.704  1.00  0.00    -0.380 OA
HETATM   25  H   UNL     1      47.038  36.170  41.999  1.00  0.00     0.211 HD
ENDBRANCH   2  24
TORSDOF 11
ENDMDL
MODEL 6
REMARK VINA RESULT:    -4.158      2.392      4.853
REMARK INTER + INTRA:          -7.790
REMARK INTER:                  -6.207
REMARK INTRA:                  -1.583
REMARK UNBOUND:                -1.565
REMARK  11 active torsions:
REMARK  status: ('A' for Active; 'I' for Inactive)
REMARK    1  A    between atoms: S_1  and  C_17 
REMARK    2  A    between atoms: O_3  and  C_16 
REMARK    3  A    between atoms: O_3  and  C_18 
REMARK    4  A    between atoms: O_4  and  C_12 
REMARK    5  A    between atoms: O_5  and  C_14 
REMARK    6  A    between atoms: O_6  and  C_15 
REMARK    7  A    between atoms: O_10  and  C_19 
REMARK    8  A    between atoms: O_11  and  C_20 
REMARK    9  A    between atoms: C_13  and  C_17 
REMARK   10  A    between atoms: C_18  and  C_19 
REMARK   11  A    between atoms: C_19  and  C_20 
ROOT
HETATM    1  O   UNL     1      41.054  48.613  37.440  1.00  0.00    -0.328 OA
HETATM    2  C   UNL     1      42.711  46.817  37.572  1.00  0.00     0.168 C 
HETATM    3  C   UNL     1      41.209  47.172  37.527  1.00  0.00     0.166 C 
HETATM    4  C   UNL     1      43.433  47.437  36.361  1.00  0.00     0.172 C 
HETATM    5  C   UNL     1      43.139  48.932  36.221  1.00  0.00     0.197 C 
HETATM    6  C   UNL     1      41.620  49.169  36.257  1.00  0.00     0.266 C 
ENDROOT
BRANCH   6   7
HETATM    7  O   UNL     1      41.015  48.621  35.079  1.00  0.00    -0.326 OA
BRANCH   7   8
HETATM    8  C   UNL     1      39.736  49.209  34.823  1.00  0.00     0.177 C 
BRANCH   8   9
HETATM    9  C   UNL     1      38.720  48.139  34.424  1.00  0.00     0.170 C 
BRANCH   9  10
HETATM   10  O   UNL     1      38.208  47.494  35.601  1.00  0.00    -0.380 OA
HETATM   11  H   UNL     1      38.176  46.547  35.350  1.00  0.00     0.211 HD
ENDBRANCH   9  10
BRANCH   9  12
HETATM   12  C   UNL     1      39.352  47.078  33.517  1.00  0.00     0.169 C 
BRANCH  12  13
HETATM   13  O   UNL     1      40.112  46.170  34.324  1.00  0.00    -0.380 OA
HETATM   14  H   UNL     1      39.535  45.383  34.395  1.00  0.00     0.211 HD
ENDBRANCH  12  13
ENDBRANCH   9  12
ENDBRANCH   8   9
ENDBRANCH   7   8
ENDBRANCH   6   7
BRANCH   5  15
HETATM   15  O   UNL     1      43.688  49.459  34.999  1.00  0.00    -0.378 OA
HETATM   16  H   UNL     1      43.416  50.396  34.972  1.00  0.00     0.211 HD
ENDBRANCH   5  15
BRANCH   3  17
HETATM   17  C   UNL     1      40.422  46.741  38.762  1.00  0.00     0.178 C 
BRANCH  17  18
HETATM   18  S   UNL     1      39.115  45.612  38.373  1.00  0.00     0.118 S 
HETATM   19  O   UNL     1      37.921  46.426  38.589  1.00  0.00    -0.594 OA
HETATM   20  O   UNL     1      39.296  44.526  39.333  1.00  0.00    -0.594 OA
HETATM   21  O   UNL     1      39.378  45.262  36.982  1.00  0.00    -0.594 OA
ENDBRANCH  17  18
ENDBRANCH   3  17
BRANCH   4  22
HETATM   22  O   UNL     1      44.848  47.209  36.510  1.00  0.00    -0.380 OA
HETATM   23  H   UNL     1      44.897  46.507  37.193  1.00  0.00     0.211 HD
ENDBRANCH   4  22
BRANCH   2  24
HETATM   24  O   UNL     1      43.039  45.425  37.522  1.00  0.00    -0.380 OA
HETATM   25  H   UNL     1      43.958  45.309  37.168  1.00  0.00     0.211 HD
ENDBRANCH   2  24
TORSDOF 11
ENDMDL
MODEL 7
REMARK VINA RESULT:    -4.082     21.660     24.308
REMARK INTER + INTRA:          -7.675
REMARK INTER:                  -5.844
REMARK INTRA:                  -1.831
REMARK UNBOUND:                -1.565
REMARK  11 active torsions:
REMARK  status: ('A' for Active; 'I' for Inactive)
REMARK    1  A    between atoms: S_1  and  C_17 
REMARK    2  A    between atoms: O_3  and  C_16 
REMARK    3  A    between atoms: O_3  and  C_18 
REMARK    4  A    between atoms: O_4  and  C_12 
REMARK    5  A    between atoms: O_5  and  C_14 
REMARK    6  A    between atoms: O_6  and  C_15 
REMARK    7  A    between atoms: O_10  and  C_19 
REMARK    8  A    between atoms: O_11  and  C_20 
REMARK    9  A    between atoms: C_13  and  C_17 
REMARK   10  A    between atoms: C_18  and  C_19 
REMARK   11  A    between atoms: C_19  and  C_20 
ROOT
HETATM    1  O   UNL     1      40.248  67.887  52.223  1.00  0.00    -0.328 OA
HETATM    2  C   UNL     1      39.779  67.291  54.549  1.00  0.00     0.168 C 
HETATM    3  C   UNL     1      39.253  67.293  53.098  1.00  0.00     0.166 C 
HETATM    4  C   UNL     1      41.148  66.587  54.612  1.00  0.00     0.172 C 
HETATM    5  C   UNL     1      42.130  67.149  53.583  1.00  0.00     0.197 C 
HETATM    6  C   UNL     1      41.474  67.163  52.191  1.00  0.00     0.266 C 
ENDROOT
BRANCH   6   7
HETATM    7  O   UNL     1      41.278  65.819  51.733  1.00  0.00    -0.326 OA
BRANCH   7   8
HETATM    8  C   UNL     1      41.296  65.744  50.304  1.00  0.00     0.177 C 
BRANCH   8   9
HETATM    9  C   UNL     1      39.907  65.400  49.765  1.00  0.00     0.170 C 
BRANCH   9  10
HETATM   10  O   UNL     1      39.128  66.600  49.635  1.00  0.00    -0.380 OA
HETATM   11  H   UNL     1      38.213  66.269  49.519  1.00  0.00     0.211 HD
ENDBRANCH   9  10
BRANCH   9  12
HETATM   12  C   UNL     1      39.170  64.431  50.694  1.00  0.00     0.169 C 
BRANCH  12  13
HETATM   13  O   UNL     1      37.759  64.555  50.470  1.00  0.00    -0.380 OA
HETATM   14  H   UNL     1      37.671  65.422  50.024  1.00  0.00     0.211 HD
ENDBRANCH  12  13
ENDBRANCH   9  12
ENDBRANCH   8   9
ENDBRANCH   7   8
ENDBRANCH   6   7
BRANCH   5  15
HETATM   15  O   UNL     1      43.343  66.375  53.543  1.00  0.00    -0.378 OA
HETATM   16  H   UNL     1      43.662  66.342  54.465  1.00  0.00     0.211 HD
ENDBRANCH   5  15
BRANCH   3  17
HETATM   17  C   UNL     1      37.977  68.102  52.891  1.00  0.00     0.178 C 
BRANCH  17  18
HETATM   18  S   UNL     1      36.573  67.079  52.547  1.00  0.00     0.118 S 
HETATM   19  O   UNL     1      36.972  65.795  53.116  1.00  0.00    -0.594 OA
HETATM   20  O   UNL     1      36.476  67.099  51.089  1.00  0.00    -0.594 OA
HETATM   21  O   UNL     1      35.488  67.754  53.250  1.00  0.00    -0.594 OA
ENDBRANCH  17  18
ENDBRANCH   3  17
BRANCH   4  22
HETATM   22  O   UNL     1      41.672  66.729  55.946  1.00  0.00    -0.380 OA
HETATM   23  H   UNL     1      41.110  66.129  56.480  1.00  0.00     0.211 HD
ENDBRANCH   4  22
BRANCH   2  24
HETATM   24  O   UNL     1      38.974  66.614  55.519  1.00  0.00    -0.380 OA
HETATM   25  H   UNL     1      38.652  65.752  55.148  1.00  0.00     0.211 HD
ENDBRANCH   2  24
TORSDOF 11
ENDMDL
MODEL 8
REMARK VINA RESULT:    -4.064     20.817     23.404
REMARK INTER + INTRA:          -7.649
REMARK INTER:                  -6.291
REMARK INTRA:                  -1.358
REMARK UNBOUND:                -1.565
REMARK  11 active torsions:
REMARK  status: ('A' for Active; 'I' for Inactive)
REMARK    1  A    between atoms: S_1  and  C_17 
REMARK    2  A    between atoms: O_3  and  C_16 
REMARK    3  A    between atoms: O_3  and  C_18 
REMARK    4  A    between atoms: O_4  and  C_12 
REMARK    5  A    between atoms: O_5  and  C_14 
REMARK    6  A    between atoms: O_6  and  C_15 
REMARK    7  A    between atoms: O_10  and  C_19 
REMARK    8  A    between atoms: O_11  and  C_20 
REMARK    9  A    between atoms: C_13  and  C_17 
REMARK   10  A    between atoms: C_18  and  C_19 
REMARK   11  A    between atoms: C_19  and  C_20 
ROOT
HETATM    1  O   UNL     1      38.312  65.594  52.351  1.00  0.00    -0.328 OA
HETATM    2  C   UNL     1      36.921  65.374  50.351  1.00  0.00     0.168 C 
HETATM    3  C   UNL     1      37.261  66.238  51.584  1.00  0.00     0.166 C 
HETATM    4  C   UNL     1      38.197  65.102  49.532  1.00  0.00     0.172 C 
HETATM    5  C   UNL     1      39.329  64.549  50.400  1.00  0.00     0.197 C 
HETATM    6  C   UNL     1      39.531  65.452  51.629  1.00  0.00     0.266 C 
ENDROOT
BRANCH   6   7
HETATM    7  O   UNL     1      40.047  66.725  51.217  1.00  0.00    -0.326 OA
BRANCH   7   8
HETATM    8  C   UNL     1      40.993  67.237  52.160  1.00  0.00     0.177 C 
BRANCH   8   9
HETATM    9  C   UNL     1      42.318  66.481  52.059  1.00  0.00     0.170 C 
BRANCH   9  10
HETATM   10  O   UNL     1      43.081  66.679  53.259  1.00  0.00    -0.380 OA
HETATM   11  H   UNL     1      43.993  66.828  52.932  1.00  0.00     0.211 HD
ENDBRANCH   9  10
BRANCH   9  12
HETATM   12  C   UNL     1      43.147  66.962  50.864  1.00  0.00     0.169 C 
BRANCH  12  13
HETATM   13  O   UNL     1      42.731  66.249  49.692  1.00  0.00    -0.380 OA
HETATM   14  H   UNL     1      42.881  66.888  48.966  1.00  0.00     0.211 HD
ENDBRANCH  12  13
ENDBRANCH   9  12
ENDBRANCH   8   9
ENDBRANCH   7   8
ENDBRANCH   6   7
BRANCH   5  15
HETATM   15  O   UNL     1      40.557  64.454  49.656  1.00  0.00    -0.378 OA
HETATM   16  H   UNL     1      40.432  63.707  49.039  1.00  0.00     0.211 HD
ENDBRANCH   5  15
BRANCH   3  17
HETATM   17  C   UNL     1      36.100  66.440  52.552  1.00  0.00     0.178 C 
BRANCH  17  18
HETATM   18  S   UNL     1      35.037  67.771  52.070  1.00  0.00     0.118 S 
HETATM   19  O   UNL     1      35.909  68.577  51.219  1.00  0.00    -0.594 OA
HETATM   20  O   UNL     1      34.668  68.399  53.336  1.00  0.00    -0.594 OA
HETATM   21  O   UNL     1      33.949  67.095  51.372  1.00  0.00    -0.594 OA
ENDBRANCH  17  18
ENDBRANCH   3  17
BRANCH   4  22
HETATM   22  O   UNL     1      37.870  64.180  48.474  1.00  0.00    -0.380 OA
HETATM   23  H   UNL     1      37.139  64.626  47.998  1.00  0.00     0.211 HD
ENDBRANCH   4  22
BRANCH   2  24
HETATM   24  O   UNL     1      35.997  65.936  49.414  1.00  0.00    -0.380 OA
HETATM   25  H   UNL     1      36.194  65.598  48.502  1.00  0.00     0.211 HD
ENDBRANCH   2  24
TORSDOF 11
ENDMDL
MODEL 9
REMARK VINA RESULT:    -4.035     14.029     16.570
REMARK INTER + INTRA:          -7.604
REMARK INTER:                  -6.179
REMARK INTRA:                  -1.426
REMARK UNBOUND:                -1.565
REMARK  11 active torsions:
REMARK  status: ('A' for Active; 'I' for Inactive)
REMARK    1  A    between atoms: S_1  and  C_17 
REMARK    2  A    between atoms: O_3  and  C_16 
REMARK    3  A    between atoms: O_3  and  C_18 
REMARK    4  A    between atoms: O_4  and  C_12 
REMARK    5  A    between atoms: O_5  and  C_14 
REMARK    6  A    between atoms: O_6  and  C_15 
REMARK    7  A    between atoms: O_10  and  C_19 
REMARK    8  A    between atoms: O_11  and  C_20 
REMARK    9  A    between atoms: C_13  and  C_17 
REMARK   10  A    between atoms: C_18  and  C_19 
REMARK   11  A    between atoms: C_19  and  C_20 
ROOT
HETATM    1  O   UNL     1      41.393  35.721  48.359  1.00  0.00    -0.328 OA
HETATM    2  C   UNL     1      43.356  34.282  48.601  1.00  0.00     0.168 C 
HETATM    3  C   UNL     1      42.157  34.671  47.710  1.00  0.00     0.166 C 
HETATM    4  C   UNL     1      44.193  35.532  48.932  1.00  0.00     0.172 C 
HETATM    5  C   UNL     1      43.333  36.667  49.489  1.00  0.00     0.197 C 
HETATM    6  C   UNL     1      42.137  36.920  48.555  1.00  0.00     0.266 C 
ENDROOT
BRANCH   6   7
HETATM    7  O   UNL     1      42.598  37.460  47.310  1.00  0.00    -0.326 OA
BRANCH   7   8
HETATM    8  C   UNL     1      41.825  38.596  46.912  1.00  0.00     0.177 C 
BRANCH   8   9
HETATM    9  C   UNL     1      42.618  39.887  47.117  1.00  0.00     0.170 C 
BRANCH   9  10
HETATM   10  O   UNL     1      44.021  39.587  47.181  1.00  0.00    -0.380 OA
HETATM   11  H   UNL     1      44.419  40.417  47.520  1.00  0.00     0.211 HD
ENDBRANCH   9  10
BRANCH   9  12
HETATM   12  C   UNL     1      42.207  40.597  48.410  1.00  0.00     0.169 C 
BRANCH  12  13
HETATM   13  O   UNL     1      43.330  40.629  49.300  1.00  0.00    -0.380 OA
HETATM   14  H   UNL     1      44.016  40.115  48.827  1.00  0.00     0.211 HD
ENDBRANCH  12  13
ENDBRANCH   9  12
ENDBRANCH   8   9
ENDBRANCH   7   8
ENDBRANCH   6   7
BRANCH   5  15
HETATM   15  O   UNL     1      44.099  37.876  49.639  1.00  0.00    -0.378 OA
HETATM   16  H   UNL     1      43.601  38.564  49.158  1.00  0.00     0.211 HD
ENDBRANCH   5  15
BRANCH   3  17
HETATM   17  C   UNL     1      41.171  33.537  47.449  1.00  0.00     0.178 C 
BRANCH  17  18
HETATM   18  S   UNL     1      41.672  32.499  46.104  1.00  0.00     0.118 S 
HETATM   19  O   UNL     1      42.590  33.362  45.365  1.00  0.00    -0.594 OA
HETATM   20  O   UNL     1      40.421  32.199  45.411  1.00  0.00    -0.594 OA
HETATM   21  O   UNL     1      42.298  31.364  46.773  1.00  0.00    -0.594 OA
ENDBRANCH  17  18
ENDBRANCH   3  17
BRANCH   4  22
HETATM   22  O   UNL     1      45.215  35.158  49.877  1.00  0.00    -0.380 OA
HETATM   23  H   UNL     1      45.473  36.010  50.287  1.00  0.00     0.211 HD
ENDBRANCH   4  22
BRANCH   2  24
HETATM   24  O   UNL     1      44.290  33.352  48.043  1.00  0.00    -0.380 OA
HETATM   25  H   UNL     1      45.076  33.839  47.683  1.00  0.00     0.211 HD
ENDBRANCH   2  24
TORSDOF 11
ENDMDL
MODEL 10
REMARK VINA RESULT:    -3.662     10.763     12.970
REMARK INTER + INTRA:          -7.047
REMARK INTER:                  -5.757
REMARK INTRA:                  -1.290
REMARK UNBOUND:                -1.565
REMARK  11 active torsions:
REMARK  status: ('A' for Active; 'I' for Inactive)
REMARK    1  A    between atoms: S_1  and  C_17 
REMARK    2  A    between atoms: O_3  and  C_16 
REMARK    3  A    between atoms: O_3  and  C_18 
REMARK    4  A    between atoms: O_4  and  C_12 
REMARK    5  A    between atoms: O_5  and  C_14 
REMARK    6  A    between atoms: O_6  and  C_15 
REMARK    7  A    between atoms: O_10  and  C_19 
REMARK    8  A    between atoms: O_11  and  C_20 
REMARK    9  A    between atoms: C_13  and  C_17 
REMARK   10  A    between atoms: C_18  and  C_19 
REMARK   11  A    between atoms: C_19  and  C_20 
ROOT
HETATM    1  O   UNL     1      43.227  39.208  42.463  1.00  0.00    -0.328 OA
HETATM    2  C   UNL     1      44.758  40.387  43.963  1.00  0.00     0.168 C 
HETATM    3  C   UNL     1      43.576  39.399  43.859  1.00  0.00     0.166 C 
HETATM    4  C   UNL     1      45.934  39.892  43.100  1.00  0.00     0.172 C 
HETATM    5  C   UNL     1      45.501  39.572  41.669  1.00  0.00     0.197 C 
HETATM    6  C   UNL     1      44.280  38.637  41.692  1.00  0.00     0.266 C 
ENDROOT
BRANCH   6   7
HETATM    7  O   UNL     1      44.661  37.351  42.197  1.00  0.00    -0.326 OA
BRANCH   7   8
HETATM    8  C   UNL     1      44.019  36.293  41.479  1.00  0.00     0.177 C 
BRANCH   8   9
HETATM    9  C   UNL     1      43.569  35.188  42.435  1.00  0.00     0.170 C 
BRANCH   9  10
HETATM   10  O   UNL     1      43.413  35.726  43.757  1.00  0.00    -0.380 OA
HETATM   11  H   UNL     1      43.243  34.935  44.310  1.00  0.00     0.211 HD
ENDBRANCH   9  10
BRANCH   9  12
HETATM   12  C   UNL     1      44.587  34.044  42.487  1.00  0.00     0.169 C 
BRANCH  12  13
HETATM   13  O   UNL     1      45.909  34.596  42.458  1.00  0.00    -0.380 OA
HETATM   14  H   UNL     1      46.268  34.294  41.598  1.00  0.00     0.211 HD
ENDBRANCH  12  13
ENDBRANCH   9  12
ENDBRANCH   8   9
ENDBRANCH   7   8
ENDBRANCH   6   7
BRANCH   5  15
HETATM   15  O   UNL     1      46.571  38.960  40.925  1.00  0.00    -0.378 OA
HETATM   16  H   UNL     1      46.559  38.017  41.177  1.00  0.00     0.211 HD
ENDBRANCH   5  15
BRANCH   3  17
HETATM   17  C   UNL     1      42.299  39.868  44.549  1.00  0.00     0.178 C 
BRANCH  17  18
HETATM   18  S   UNL     1      42.062  39.104  46.129  1.00  0.00     0.118 S 
HETATM   19  O   UNL     1      42.459  37.722  45.873  1.00  0.00    -0.594 OA
HETATM   20  O   UNL     1      40.638  39.293  46.397  1.00  0.00    -0.594 OA
HETATM   21  O   UNL     1      42.962  39.852  47.000  1.00  0.00    -0.594 OA
ENDBRANCH  17  18
ENDBRANCH   3  17
BRANCH   4  22
HETATM   22  O   UNL     1      46.960  40.904  43.107  1.00  0.00    -0.380 OA
HETATM   23  H   UNL     1      46.678  41.512  43.823  1.00  0.00     0.211 HD
ENDBRANCH   4  22
BRANCH   2  24
HETATM   24  O   UNL     1      45.315  40.580  45.267  1.00  0.00    -0.380 OA
HETATM   25  H   UNL     1      44.631  40.968  45.872  1.00  0.00     0.211 HD
ENDBRANCH   2  24
TORSDOF 11
ENDMDL
