MODEL 1
REMARK VINA RESULT:    -6.157      0.000      0.000
REMARK INTER + INTRA:         -10.366
REMARK INTER:                  -9.037
REMARK INTRA:                  -1.329
REMARK UNBOUND:                -1.329
REMARK  12 active torsions:
REMARK  status: ('A' for Active; 'I' for Inactive)
REMARK    1  A    between atoms: O_1  and  C_12 
REMARK    2  A    between atoms: O_1  and  C_14 
REMARK    3  A    between atoms: O_4  and  C_13 
REMARK    4  A    between atoms: O_5  and  C_16 
REMARK    5  A    between atoms: O_6  and  C_17 
REMARK    6  A    between atoms: O_7  and  C_18 
REMARK    7  A    between atoms: O_8  and  C_19 
REMARK    8  A    between atoms: O_9  and  C_21 
REMARK    9  A    between atoms: O_10  and  C_22 
REMARK   10  A    between atoms: O_11  and  C_23 
REMARK   11  A    between atoms: C_15  and  C_22 
REMARK   12  A    between atoms: C_20  and  C_23 
ROOT
HETATM    1  O   UNL     1      44.079  40.978  45.319  1.00  0.00    -0.326 OA
ENDROOT
BRANCH   1   2
HETATM    2  C   UNL     1      44.585  42.283  44.971  1.00  0.00     0.177 C 
HETATM    3  C   UNL     1      43.703  42.927  43.879  1.00  0.00     0.172 C 
HETATM    4  C   UNL     1      44.012  44.419  43.703  1.00  0.00     0.197 C 
HETATM    5  C   UNL     1      44.048  45.133  45.062  1.00  0.00     0.263 C 
HETATM    6  O   UNL     1      44.954  44.507  45.953  1.00  0.00    -0.327 OA
HETATM    7  C   UNL     1      44.560  43.155  46.239  1.00  0.00     0.177 C 
BRANCH   3   8
HETATM    8  O   UNL     1      43.922  42.261  42.622  1.00  0.00    -0.380 OA
HETATM    9  H   UNL     1      43.648  42.904  41.936  1.00  0.00     0.211 HD
ENDBRANCH   3   8
BRANCH   4  10
HETATM   10  O   UNL     1      43.015  45.038  42.872  1.00  0.00    -0.378 OA
HETATM   11  H   UNL     1      42.161  44.838  43.302  1.00  0.00     0.211 HD
ENDBRANCH   4  10
BRANCH   5  12
HETATM   12  O   UNL     1      44.490  46.468  44.849  1.00  0.00    -0.359 OA
HETATM   13  H   UNL     1      43.750  46.916  44.408  1.00  0.00     0.213 HD
ENDBRANCH   5  12
BRANCH   7  14
HETATM   14  C   UNL     1      45.531  42.617  47.297  1.00  0.00     0.170 C 
BRANCH  14  15
HETATM   15  O   UNL     1      44.980  41.447  47.902  1.00  0.00    -0.380 OA
HETATM   16  H   UNL     1      45.742  40.946  48.251  1.00  0.00     0.211 HD
ENDBRANCH  14  15
ENDBRANCH   7  14
ENDBRANCH   1   2
BRANCH   1  17
HETATM   17  C   UNL     1      44.686  39.906  44.586  1.00  0.00     0.266 C 
HETATM   18  O   UNL     1      43.847  39.540  43.497  1.00  0.00    -0.326 OA
HETATM   19  C   UNL     1      44.442  38.504  42.681  1.00  0.00     0.176 C 
HETATM   20  C   UNL     1      44.535  37.215  43.510  1.00  0.00     0.170 C 
HETATM   21  C   UNL     1      45.379  37.497  44.769  1.00  0.00     0.172 C 
HETATM   22  C   UNL     1      44.851  38.711  45.545  1.00  0.00     0.197 C 
BRANCH  19  23
HETATM   23  C   UNL     1      43.567  38.346  41.436  1.00  0.00     0.170 C 
BRANCH  23  24
HETATM   24  O   UNL     1      42.809  39.542  41.237  1.00  0.00    -0.380 OA
HETATM   25  H   UNL     1      41.960  39.431  41.713  1.00  0.00     0.211 HD
ENDBRANCH  23  24
ENDBRANCH  19  23
BRANCH  20  26
HETATM   26  O   UNL     1      43.217  36.763  43.852  1.00  0.00    -0.380 OA
HETATM   27  H   UNL     1      43.288  36.003  44.452  1.00  0.00     0.211 HD
ENDBRANCH  20  26
BRANCH  21  28
HETATM   28  O   UNL     1      45.424  36.357  45.630  1.00  0.00    -0.380 OA
HETATM   29  H   UNL     1      44.684  36.465  46.259  1.00  0.00     0.211 HD
ENDBRANCH  21  28
BRANCH  22  30
HETATM   30  O   UNL     1      45.769  39.017  46.605  1.00  0.00    -0.378 OA
HETATM   31  H   UNL     1      45.311  39.656  47.184  1.00  0.00     0.211 HD
ENDBRANCH  22  30
ENDBRANCH   1  17
TORSDOF 12
ENDMDL
MODEL 2
REMARK VINA RESULT:    -5.812      1.768      1.911
REMARK INTER + INTRA:          -9.859
REMARK INTER:                  -8.373
REMARK INTRA:                  -1.486
REMARK UNBOUND:                -1.329
REMARK  12 active torsions:
REMARK  status: ('A' for Active; 'I' for Inactive)
REMARK    1  A    between atoms: O_1  and  C_12 
REMARK    2  A    between atoms: O_1  and  C_14 
REMARK    3  A    between atoms: O_4  and  C_13 
REMARK    4  A    between atoms: O_5  and  C_16 
REMARK    5  A    between atoms: O_6  and  C_17 
REMARK    6  A    between atoms: O_7  and  C_18 
REMARK    7  A    between atoms: O_8  and  C_19 
REMARK    8  A    between atoms: O_9  and  C_21 
REMARK    9  A    between atoms: O_10  and  C_22 
REMARK   10  A    between atoms: O_11  and  C_23 
REMARK   11  A    between atoms: C_15  and  C_22 
REMARK   12  A    between atoms: C_20  and  C_23 
ROOT
HETATM    1  O   UNL     1      43.866  40.250  44.774  1.00  0.00    -0.326 OA
ENDROOT
BRANCH   1   2
HETATM    2  C   UNL     1      44.360  41.518  45.250  1.00  0.00     0.177 C 
HETATM    3  C   UNL     1      43.789  42.672  44.399  1.00  0.00     0.172 C 
HETATM    4  C   UNL     1      44.033  44.038  45.052  1.00  0.00     0.197 C 
HETATM    5  C   UNL     1      43.627  44.015  46.533  1.00  0.00     0.263 C 
HETATM    6  O   UNL     1      44.279  42.970  47.233  1.00  0.00    -0.327 OA
HETATM    7  C   UNL     1      43.912  41.681  46.713  1.00  0.00     0.177 C 
BRANCH   3   8
HETATM    8  O   UNL     1      44.406  42.668  43.098  1.00  0.00    -0.380 OA
HETATM    9  H   UNL     1      45.248  42.182  43.211  1.00  0.00     0.211 HD
ENDBRANCH   3   8
BRANCH   4  10
HETATM   10  O   UNL     1      43.278  45.056  44.372  1.00  0.00    -0.378 OA
HETATM   11  H   UNL     1      43.729  45.180  43.515  1.00  0.00     0.211 HD
ENDBRANCH   4  10
BRANCH   5  12
HETATM   12  O   UNL     1      44.020  45.250  47.119  1.00  0.00    -0.359 OA
HETATM   13  H   UNL     1      44.848  45.493  46.673  1.00  0.00     0.213 HD
ENDBRANCH   5  12
BRANCH   7  14
HETATM   14  C   UNL     1      44.570  40.629  47.614  1.00  0.00     0.170 C 
BRANCH  14  15
HETATM   15  O   UNL     1      43.733  39.476  47.694  1.00  0.00    -0.380 OA
HETATM   16  H   UNL     1      43.718  39.096  46.795  1.00  0.00     0.211 HD
ENDBRANCH  14  15
ENDBRANCH   7  14
ENDBRANCH   1   2
BRANCH   1  17
HETATM   17  C   UNL     1      44.839  39.481  44.054  1.00  0.00     0.266 C 
HETATM   18  O   UNL     1      44.723  39.751  42.661  1.00  0.00    -0.326 OA
HETATM   19  C   UNL     1      45.727  39.051  41.890  1.00  0.00     0.176 C 
HETATM   20  C   UNL     1      45.459  37.541  41.986  1.00  0.00     0.170 C 
HETATM   21  C   UNL     1      45.496  37.127  43.471  1.00  0.00     0.172 C 
HETATM   22  C   UNL     1      44.559  37.990  44.324  1.00  0.00     0.197 C 
BRANCH  19  23
HETATM   23  C   UNL     1      45.648  39.577  40.456  1.00  0.00     0.170 C 
BRANCH  23  24
HETATM   24  O   UNL     1      46.180  38.595  39.563  1.00  0.00    -0.380 OA
HETATM   25  H   UNL     1      46.592  37.896  40.112  1.00  0.00     0.211 HD
ENDBRANCH  23  24
ENDBRANCH  19  23
BRANCH  20  26
HETATM   26  O   UNL     1      44.192  37.235  41.387  1.00  0.00    -0.380 OA
HETATM   27  H   UNL     1      43.527  37.132  42.088  1.00  0.00     0.211 HD
ENDBRANCH  20  26
BRANCH  21  28
HETATM   28  O   UNL     1      45.162  35.747  43.632  1.00  0.00    -0.380 OA
HETATM   29  H   UNL     1      44.532  35.537  42.916  1.00  0.00     0.211 HD
ENDBRANCH  21  28
BRANCH  22  30
HETATM   30  O   UNL     1      44.761  37.665  45.707  1.00  0.00    -0.378 OA
HETATM   31  H   UNL     1      44.487  38.454  46.214  1.00  0.00     0.211 HD
ENDBRANCH  22  30
ENDBRANCH   1  17
TORSDOF 12
ENDMDL
MODEL 3
REMARK VINA RESULT:    -5.479      1.527      6.158
REMARK INTER + INTRA:          -9.371
REMARK INTER:                  -7.768
REMARK INTRA:                  -1.603
REMARK UNBOUND:                -1.329
REMARK  12 active torsions:
REMARK  status: ('A' for Active; 'I' for Inactive)
REMARK    1  A    between atoms: O_1  and  C_12 
REMARK    2  A    between atoms: O_1  and  C_14 
REMARK    3  A    between atoms: O_4  and  C_13 
REMARK    4  A    between atoms: O_5  and  C_16 
REMARK    5  A    between atoms: O_6  and  C_17 
REMARK    6  A    between atoms: O_7  and  C_18 
REMARK    7  A    between atoms: O_8  and  C_19 
REMARK    8  A    between atoms: O_9  and  C_21 
REMARK    9  A    between atoms: O_10  and  C_22 
REMARK   10  A    between atoms: O_11  and  C_23 
REMARK   11  A    between atoms: C_15  and  C_22 
REMARK   12  A    between atoms: C_20  and  C_23 
ROOT
HETATM    1  O   UNL     1      45.957  39.088  44.090  1.00  0.00    -0.326 OA
ENDROOT
BRANCH   1   2
HETATM    2  C   UNL     1      45.194  38.012  43.505  1.00  0.00     0.177 C 
HETATM    3  C   UNL     1      44.429  37.238  44.600  1.00  0.00     0.172 C 
HETATM    4  C   UNL     1      43.376  36.298  44.003  1.00  0.00     0.197 C 
HETATM    5  C   UNL     1      42.520  37.030  42.959  1.00  0.00     0.263 C 
HETATM    6  O   UNL     1      43.324  37.628  41.957  1.00  0.00    -0.327 OA
HETATM    7  C   UNL     1      44.195  38.628  42.510  1.00  0.00     0.177 C 
BRANCH   3   8
HETATM    8  O   UNL     1      45.354  36.457  45.379  1.00  0.00    -0.380 OA
HETATM    9  H   UNL     1      45.640  37.044  46.108  1.00  0.00     0.211 HD
ENDBRANCH   3   8
BRANCH   4  10
HETATM   10  O   UNL     1      42.520  35.788  45.040  1.00  0.00    -0.378 OA
HETATM   11  H   UNL     1      42.753  34.844  45.125  1.00  0.00     0.211 HD
ENDBRANCH   4  10
BRANCH   5  12
HETATM   12  O   UNL     1      41.673  36.074  42.332  1.00  0.00    -0.359 OA
HETATM   13  H   UNL     1      41.484  35.412  43.017  1.00  0.00     0.213 HD
ENDBRANCH   5  12
BRANCH   7  14
HETATM   14  C   UNL     1      44.923  39.291  41.334  1.00  0.00     0.170 C 
BRANCH  14  15
HETATM   15  O   UNL     1      44.945  40.705  41.521  1.00  0.00    -0.380 OA
HETATM   16  H   UNL     1      45.008  40.844  42.486  1.00  0.00     0.211 HD
ENDBRANCH  14  15
ENDBRANCH   7  14
ENDBRANCH   1   2
BRANCH   1  17
HETATM   17  C   UNL     1      45.185  39.957  44.930  1.00  0.00     0.266 C 
HETATM   18  O   UNL     1      44.993  41.205  44.274  1.00  0.00    -0.326 OA
HETATM   19  C   UNL     1      44.162  42.100  45.050  1.00  0.00     0.176 C 
HETATM   20  C   UNL     1      44.913  42.483  46.333  1.00  0.00     0.170 C 
HETATM   21  C   UNL     1      45.241  41.195  47.116  1.00  0.00     0.172 C 
HETATM   22  C   UNL     1      45.969  40.169  46.240  1.00  0.00     0.197 C 
BRANCH  19  23
HETATM   23  C   UNL     1      43.846  43.308  44.165  1.00  0.00     0.170 C 
BRANCH  23  24
HETATM   24  O   UNL     1      44.824  43.402  43.126  1.00  0.00    -0.380 OA
HETATM   25  H   UNL     1      45.457  42.665  43.255  1.00  0.00     0.211 HD
ENDBRANCH  23  24
ENDBRANCH  19  23
BRANCH  20  26
HETATM   26  O   UNL     1      46.103  43.211  45.999  1.00  0.00    -0.380 OA
HETATM   27  H   UNL     1      46.789  43.015  46.659  1.00  0.00     0.211 HD
ENDBRANCH  20  26
BRANCH  21  28
HETATM   28  O   UNL     1      46.023  41.479  48.278  1.00  0.00    -0.380 OA
HETATM   29  H   UNL     1      45.932  40.699  48.860  1.00  0.00     0.211 HD
ENDBRANCH  21  28
BRANCH  22  30
HETATM   30  O   UNL     1      46.098  38.942  46.974  1.00  0.00    -0.378 OA
HETATM   31  H   UNL     1      45.282  38.434  46.798  1.00  0.00     0.211 HD
ENDBRANCH  22  30
ENDBRANCH   1  17
TORSDOF 12
ENDMDL
MODEL 4
REMARK VINA RESULT:    -5.444      1.466      5.977
REMARK INTER + INTRA:          -9.319
REMARK INTER:                  -7.819
REMARK INTRA:                  -1.500
REMARK UNBOUND:                -1.329
REMARK  12 active torsions:
REMARK  status: ('A' for Active; 'I' for Inactive)
REMARK    1  A    between atoms: O_1  and  C_12 
REMARK    2  A    between atoms: O_1  and  C_14 
REMARK    3  A    between atoms: O_4  and  C_13 
REMARK    4  A    between atoms: O_5  and  C_16 
REMARK    5  A    between atoms: O_6  and  C_17 
REMARK    6  A    between atoms: O_7  and  C_18 
REMARK    7  A    between atoms: O_8  and  C_19 
REMARK    8  A    between atoms: O_9  and  C_21 
REMARK    9  A    between atoms: O_10  and  C_22 
REMARK   10  A    between atoms: O_11  and  C_23 
REMARK   11  A    between atoms: C_15  and  C_22 
REMARK   12  A    between atoms: C_20  and  C_23 
ROOT
HETATM    1  O   UNL     1      45.624  39.636  44.343  1.00  0.00    -0.326 OA
ENDROOT
BRANCH   1   2
HETATM    2  C   UNL     1      44.617  38.778  43.769  1.00  0.00     0.177 C 
HETATM    3  C   UNL     1      44.406  39.118  42.278  1.00  0.00     0.172 C 
HETATM    4  C   UNL     1      43.585  38.041  41.559  1.00  0.00     0.197 C 
HETATM    5  C   UNL     1      44.130  36.640  41.870  1.00  0.00     0.263 C 
HETATM    6  O   UNL     1      44.197  36.408  43.266  1.00  0.00    -0.327 OA
HETATM    7  C   UNL     1      45.101  37.323  43.907  1.00  0.00     0.177 C 
BRANCH   3   8
HETATM    8  O   UNL     1      43.719  40.377  42.159  1.00  0.00    -0.380 OA
HETATM    9  H   UNL     1      44.340  40.968  41.686  1.00  0.00     0.211 HD
ENDBRANCH   3   8
BRANCH   4  10
HETATM   10  O   UNL     1      43.622  38.256  40.137  1.00  0.00    -0.378 OA
HETATM   11  H   UNL     1      42.769  38.678  39.919  1.00  0.00     0.211 HD
ENDBRANCH   4  10
BRANCH   5  12
HETATM   12  O   UNL     1      43.239  35.684  41.307  1.00  0.00    -0.359 OA
HETATM   13  H   UNL     1      42.900  35.175  42.061  1.00  0.00     0.213 HD
ENDBRANCH   5  12
BRANCH   7  14
HETATM   14  C   UNL     1      45.192  36.908  45.381  1.00  0.00     0.170 C 
BRANCH  14  15
HETATM   15  O   UNL     1      46.495  37.203  45.881  1.00  0.00    -0.380 OA
HETATM   16  H   UNL     1      46.365  37.490  46.806  1.00  0.00     0.211 HD
ENDBRANCH  14  15
ENDBRANCH   7  14
ENDBRANCH   1   2
BRANCH   1  17
HETATM   17  C   UNL     1      45.092  40.715  45.123  1.00  0.00     0.266 C 
HETATM   18  O   UNL     1      44.992  41.883  44.315  1.00  0.00    -0.326 OA
HETATM   19  C   UNL     1      44.397  42.987  45.033  1.00  0.00     0.176 C 
HETATM   20  C   UNL     1      45.350  43.413  46.160  1.00  0.00     0.170 C 
HETATM   21  C   UNL     1      45.593  42.203  47.085  1.00  0.00     0.172 C 
HETATM   22  C   UNL     1      46.056  40.972  46.297  1.00  0.00     0.197 C 
BRANCH  19  23
HETATM   23  C   UNL     1      44.141  44.105  44.020  1.00  0.00     0.170 C 
BRANCH  23  24
HETATM   24  O   UNL     1      45.131  44.044  42.990  1.00  0.00    -0.380 OA
HETATM   25  H   UNL     1      45.167  44.927  42.568  1.00  0.00     0.211 HD
ENDBRANCH  23  24
ENDBRANCH  19  23
BRANCH  20  26
HETATM   26  O   UNL     1      46.577  43.900  45.599  1.00  0.00    -0.380 OA
HETATM   27  H   UNL     1      47.226  43.177  45.583  1.00  0.00     0.211 HD
ENDBRANCH  20  26
BRANCH  21  28
HETATM   28  O   UNL     1      46.547  42.512  48.104  1.00  0.00    -0.380 OA
HETATM   29  H   UNL     1      46.859  43.418  47.914  1.00  0.00     0.211 HD
ENDBRANCH  21  28
BRANCH  22  30
HETATM   30  O   UNL     1      46.107  39.846  47.185  1.00  0.00    -0.378 OA
HETATM   31  H   UNL     1      45.441  39.211  46.856  1.00  0.00     0.211 HD
ENDBRANCH  22  30
ENDBRANCH   1  17
TORSDOF 12
ENDMDL
MODEL 5
REMARK VINA RESULT:    -5.249      5.253      8.129
REMARK INTER + INTRA:          -9.032
REMARK INTER:                  -7.661
REMARK INTRA:                  -1.372
REMARK UNBOUND:                -1.329
REMARK  12 active torsions:
REMARK  status: ('A' for Active; 'I' for Inactive)
REMARK    1  A    between atoms: O_1  and  C_12 
REMARK    2  A    between atoms: O_1  and  C_14 
REMARK    3  A    between atoms: O_4  and  C_13 
REMARK    4  A    between atoms: O_5  and  C_16 
REMARK    5  A    between atoms: O_6  and  C_17 
REMARK    6  A    between atoms: O_7  and  C_18 
REMARK    7  A    between atoms: O_8  and  C_19 
REMARK    8  A    between atoms: O_9  and  C_21 
REMARK    9  A    between atoms: O_10  and  C_22 
REMARK   10  A    between atoms: O_11  and  C_23 
REMARK   11  A    between atoms: C_15  and  C_22 
REMARK   12  A    between atoms: C_20  and  C_23 
ROOT
HETATM    1  O   UNL     1      41.640  35.694  40.382  1.00  0.00    -0.326 OA
ENDROOT
BRANCH   1   2
HETATM    2  C   UNL     1      42.982  36.155  40.639  1.00  0.00     0.177 C 
HETATM    3  C   UNL     1      43.555  36.864  39.392  1.00  0.00     0.172 C 
HETATM    4  C   UNL     1      44.841  37.635  39.715  1.00  0.00     0.197 C 
HETATM    5  C   UNL     1      44.658  38.501  40.970  1.00  0.00     0.263 C 
HETATM    6  O   UNL     1      44.213  37.729  42.072  1.00  0.00    -0.327 OA
HETATM    7  C   UNL     1      42.926  37.143  41.818  1.00  0.00     0.177 C 
BRANCH   3   8
HETATM    8  O   UNL     1      43.846  35.892  38.371  1.00  0.00    -0.380 OA
HETATM    9  H   UNL     1      44.402  36.361  37.717  1.00  0.00     0.211 HD
ENDBRANCH   3   8
BRANCH   4  10
HETATM   10  O   UNL     1      45.205  38.479  38.609  1.00  0.00    -0.378 OA
HETATM   11  H   UNL     1      45.536  37.871  37.920  1.00  0.00     0.211 HD
ENDBRANCH   4  10
BRANCH   5  12
HETATM   12  O   UNL     1      45.920  39.064  41.306  1.00  0.00    -0.359 OA
HETATM   13  H   UNL     1      46.574  38.535  40.821  1.00  0.00     0.213 HD
ENDBRANCH   5  12
BRANCH   7  14
HETATM   14  C   UNL     1      42.489  36.439  43.108  1.00  0.00     0.170 C 
BRANCH  14  15
HETATM   15  O   UNL     1      41.077  36.232  43.085  1.00  0.00    -0.380 OA
HETATM   16  H   UNL     1      40.713  36.810  43.783  1.00  0.00     0.211 HD
ENDBRANCH  14  15
ENDBRANCH   7  14
ENDBRANCH   1   2
BRANCH   1  17
HETATM   17  C   UNL     1      41.572  34.344  39.904  1.00  0.00     0.266 C 
HETATM   18  O   UNL     1      41.334  34.347  38.501  1.00  0.00    -0.326 OA
HETATM   19  C   UNL     1      41.321  33.009  37.953  1.00  0.00     0.176 C 
HETATM   20  C   UNL     1      40.110  32.254  38.519  1.00  0.00     0.170 C 
HETATM   21  C   UNL     1      40.216  32.234  40.057  1.00  0.00     0.172 C 
HETATM   22  C   UNL     1      40.408  33.643  40.631  1.00  0.00     0.197 C 
BRANCH  19  23
HETATM   23  C   UNL     1      41.278  33.142  36.429  1.00  0.00     0.170 C 
BRANCH  23  24
HETATM   24  O   UNL     1      40.581  32.022  35.877  1.00  0.00    -0.380 OA
HETATM   25  H   UNL     1      40.564  32.140  34.905  1.00  0.00     0.211 HD
ENDBRANCH  23  24
ENDBRANCH  19  23
BRANCH  20  26
HETATM   26  O   UNL     1      38.898  32.889  38.085  1.00  0.00    -0.380 OA
HETATM   27  H   UNL     1      38.641  32.523  37.223  1.00  0.00     0.211 HD
ENDBRANCH  20  26
BRANCH  21  28
HETATM   28  O   UNL     1      39.067  31.624  40.649  1.00  0.00    -0.380 OA
HETATM   29  H   UNL     1      38.548  32.352  41.042  1.00  0.00     0.211 HD
ENDBRANCH  21  28
BRANCH  22  30
HETATM   30  O   UNL     1      40.662  33.538  42.040  1.00  0.00    -0.378 OA
HETATM   31  H   UNL     1      39.791  33.410  42.464  1.00  0.00     0.211 HD
ENDBRANCH  22  30
ENDBRANCH   1  17
TORSDOF 12
ENDMDL
MODEL 6
REMARK VINA RESULT:    -5.233      2.045      4.983
REMARK INTER + INTRA:          -9.009
REMARK INTER:                  -7.471
REMARK INTRA:                  -1.538
REMARK UNBOUND:                -1.329
REMARK  12 active torsions:
REMARK  status: ('A' for Active; 'I' for Inactive)
REMARK    1  A    between atoms: O_1  and  C_12 
REMARK    2  A    between atoms: O_1  and  C_14 
REMARK    3  A    between atoms: O_4  and  C_13 
REMARK    4  A    between atoms: O_5  and  C_16 
REMARK    5  A    between atoms: O_6  and  C_17 
REMARK    6  A    between atoms: O_7  and  C_18 
REMARK    7  A    between atoms: O_8  and  C_19 
REMARK    8  A    between atoms: O_9  and  C_21 
REMARK    9  A    between atoms: O_10  and  C_22 
REMARK   10  A    between atoms: O_11  and  C_23 
REMARK   11  A    between atoms: C_15  and  C_22 
REMARK   12  A    between atoms: C_20  and  C_23 
ROOT
HETATM    1  O   UNL     1      44.793  39.183  43.490  1.00  0.00    -0.326 OA
ENDROOT
BRANCH   1   2
HETATM    2  C   UNL     1      44.762  39.359  44.922  1.00  0.00     0.177 C 
HETATM    3  C   UNL     1      45.757  38.397  45.604  1.00  0.00     0.172 C 
HETATM    4  C   UNL     1      45.983  38.760  47.076  1.00  0.00     0.197 C 
HETATM    5  C   UNL     1      46.269  40.261  47.231  1.00  0.00     0.263 C 
HETATM    6  O   UNL     1      45.245  41.046  46.644  1.00  0.00    -0.327 OA
HETATM    7  C   UNL     1      45.153  40.815  45.228  1.00  0.00     0.177 C 
BRANCH   3   8
HETATM    8  O   UNL     1      45.256  37.049  45.534  1.00  0.00    -0.380 OA
HETATM    9  H   UNL     1      45.737  36.557  46.230  1.00  0.00     0.211 HD
ENDBRANCH   3   8
BRANCH   4  10
HETATM   10  O   UNL     1      47.092  38.013  47.607  1.00  0.00    -0.378 OA
HETATM   11  H   UNL     1      47.422  38.542  48.358  1.00  0.00     0.211 HD
ENDBRANCH   4  10
BRANCH   5  12
HETATM   12  O   UNL     1      46.313  40.562  48.620  1.00  0.00    -0.359 OA
HETATM   13  H   UNL     1      46.013  39.754  49.067  1.00  0.00     0.213 HD
ENDBRANCH   5  12
BRANCH   7  14
HETATM   14  C   UNL     1      44.110  41.796  44.679  1.00  0.00     0.170 C 
BRANCH  14  15
HETATM   15  O   UNL     1      44.461  42.173  43.348  1.00  0.00    -0.380 OA
HETATM   16  H   UNL     1      43.755  41.814  42.776  1.00  0.00     0.211 HD
ENDBRANCH  14  15
ENDBRANCH   7  14
ENDBRANCH   1   2
BRANCH   1  17
HETATM   17  C   UNL     1      43.655  38.486  42.965  1.00  0.00     0.266 C 
HETATM   18  O   UNL     1      43.927  37.090  42.930  1.00  0.00    -0.326 OA
HETATM   19  C   UNL     1      42.786  36.330  42.471  1.00  0.00     0.176 C 
HETATM   20  C   UNL     1      42.520  36.679  40.999  1.00  0.00     0.170 C 
HETATM   21  C   UNL     1      42.269  38.196  40.890  1.00  0.00     0.172 C 
HETATM   22  C   UNL     1      43.399  39.006  41.538  1.00  0.00     0.197 C 
BRANCH  19  23
HETATM   23  C   UNL     1      43.112  34.849  42.678  1.00  0.00     0.170 C 
BRANCH  23  24
HETATM   24  O   UNL     1      44.519  34.648  42.519  1.00  0.00    -0.380 OA
HETATM   25  H   UNL     1      44.954  34.974  43.334  1.00  0.00     0.211 HD
ENDBRANCH  23  24
ENDBRANCH  19  23
BRANCH  20  26
HETATM   26  O   UNL     1      43.637  36.273  40.196  1.00  0.00    -0.380 OA
HETATM   27  H   UNL     1      43.555  36.673  39.314  1.00  0.00     0.211 HD
ENDBRANCH  20  26
BRANCH  21  28
HETATM   28  O   UNL     1      42.106  38.599  39.528  1.00  0.00    -0.380 OA
HETATM   29  H   UNL     1      42.258  37.797  38.991  1.00  0.00     0.211 HD
ENDBRANCH  21  28
BRANCH  22  30
HETATM   30  O   UNL     1      43.028  40.393  41.547  1.00  0.00    -0.378 OA
HETATM   31  H   UNL     1      43.851  40.895  41.390  1.00  0.00     0.211 HD
ENDBRANCH  22  30
ENDBRANCH   1  17
TORSDOF 12
ENDMDL
MODEL 7
REMARK VINA RESULT:    -4.997      5.088      8.229
REMARK INTER + INTRA:          -8.663
REMARK INTER:                  -7.266
REMARK INTRA:                  -1.397
REMARK UNBOUND:                -1.329
REMARK  12 active torsions:
REMARK  status: ('A' for Active; 'I' for Inactive)
REMARK    1  A    between atoms: O_1  and  C_12 
REMARK    2  A    between atoms: O_1  and  C_14 
REMARK    3  A    between atoms: O_4  and  C_13 
REMARK    4  A    between atoms: O_5  and  C_16 
REMARK    5  A    between atoms: O_6  and  C_17 
REMARK    6  A    between atoms: O_7  and  C_18 
REMARK    7  A    between atoms: O_8  and  C_19 
REMARK    8  A    between atoms: O_9  and  C_21 
REMARK    9  A    between atoms: O_10  and  C_22 
REMARK   10  A    between atoms: O_11  and  C_23 
REMARK   11  A    between atoms: C_15  and  C_22 
REMARK   12  A    between atoms: C_20  and  C_23 
ROOT
HETATM    1  O   UNL     1      47.144  37.547  40.793  1.00  0.00    -0.326 OA
ENDROOT
BRANCH   1   2
HETATM    2  C   UNL     1      47.623  36.682  39.743  1.00  0.00     0.177 C 
HETATM    3  C   UNL     1      47.833  37.483  38.440  1.00  0.00     0.172 C 
HETATM    4  C   UNL     1      48.626  36.682  37.400  1.00  0.00     0.197 C 
HETATM    5  C   UNL     1      49.881  36.062  38.030  1.00  0.00     0.263 C 
HETATM    6  O   UNL     1      49.557  35.279  39.166  1.00  0.00    -0.327 OA
HETATM    7  C   UNL     1      48.961  36.077  40.202  1.00  0.00     0.177 C 
BRANCH   3   8
HETATM    8  O   UNL     1      46.556  37.834  37.874  1.00  0.00    -0.380 OA
HETATM    9  H   UNL     1      46.436  37.233  37.111  1.00  0.00     0.211 HD
ENDBRANCH   3   8
BRANCH   4  10
HETATM   10  O   UNL     1      49.018  37.535  36.310  1.00  0.00    -0.378 OA
HETATM   11  H   UNL     1      49.013  36.962  35.520  1.00  0.00     0.211 HD
ENDBRANCH   4  10
BRANCH   5  12
HETATM   12  O   UNL     1      50.486  35.210  37.065  1.00  0.00    -0.359 OA
HETATM   13  H   UNL     1      51.442  35.304  37.203  1.00  0.00     0.213 HD
ENDBRANCH   5  12
BRANCH   7  14
HETATM   14  C   UNL     1      48.767  35.164  41.418  1.00  0.00     0.170 C 
BRANCH  14  15
HETATM   15  O   UNL     1      47.457  34.599  41.388  1.00  0.00    -0.380 OA
HETATM   16  H   UNL     1      46.947  35.146  40.759  1.00  0.00     0.211 HD
ENDBRANCH  14  15
ENDBRANCH   7  14
ENDBRANCH   1   2
BRANCH   1  17
HETATM   17  C   UNL     1      45.778  37.313  41.161  1.00  0.00     0.266 C 
HETATM   18  O   UNL     1      45.177  36.428  40.222  1.00  0.00    -0.326 OA
HETATM   19  C   UNL     1      43.815  36.103  40.582  1.00  0.00     0.176 C 
HETATM   20  C   UNL     1      42.959  37.374  40.473  1.00  0.00     0.170 C 
HETATM   21  C   UNL     1      43.550  38.448  41.409  1.00  0.00     0.172 C 
HETATM   22  C   UNL     1      45.045  38.668  41.147  1.00  0.00     0.197 C 
BRANCH  19  23
HETATM   23  C   UNL     1      43.348  34.992  39.639  1.00  0.00     0.170 C 
BRANCH  23  24
HETATM   24  O   UNL     1      43.992  35.146  38.372  1.00  0.00    -0.380 OA
HETATM   25  H   UNL     1      43.289  35.249  37.698  1.00  0.00     0.211 HD
ENDBRANCH  23  24
ENDBRANCH  19  23
BRANCH  20  26
HETATM   26  O   UNL     1      42.930  37.824  39.112  1.00  0.00    -0.380 OA
HETATM   27  H   UNL     1      43.821  38.115  38.855  1.00  0.00     0.211 HD
ENDBRANCH  20  26
BRANCH  21  28
HETATM   28  O   UNL     1      42.850  39.688  41.284  1.00  0.00    -0.380 OA
HETATM   29  H   UNL     1      42.082  39.625  41.885  1.00  0.00     0.211 HD
ENDBRANCH  21  28
BRANCH  22  30
HETATM   30  O   UNL     1      45.566  39.552  42.151  1.00  0.00    -0.378 OA
HETATM   31  H   UNL     1      45.329  39.155  43.011  1.00  0.00     0.211 HD
ENDBRANCH  22  30
ENDBRANCH   1  17
TORSDOF 12
ENDMDL
MODEL 8
REMARK VINA RESULT:    -4.967      1.968      2.747
REMARK INTER + INTRA:          -8.619
REMARK INTER:                  -7.191
REMARK INTRA:                  -1.428
REMARK UNBOUND:                -1.329
REMARK  12 active torsions:
REMARK  status: ('A' for Active; 'I' for Inactive)
REMARK    1  A    between atoms: O_1  and  C_12 
REMARK    2  A    between atoms: O_1  and  C_14 
REMARK    3  A    between atoms: O_4  and  C_13 
REMARK    4  A    between atoms: O_5  and  C_16 
REMARK    5  A    between atoms: O_6  and  C_17 
REMARK    6  A    between atoms: O_7  and  C_18 
REMARK    7  A    between atoms: O_8  and  C_19 
REMARK    8  A    between atoms: O_9  and  C_21 
REMARK    9  A    between atoms: O_10  and  C_22 
REMARK   10  A    between atoms: O_11  and  C_23 
REMARK   11  A    between atoms: C_15  and  C_22 
REMARK   12  A    between atoms: C_20  and  C_23 
ROOT
HETATM    1  O   UNL     1      45.179  39.009  44.669  1.00  0.00    -0.326 OA
ENDROOT
BRANCH   1   2
HETATM    2  C   UNL     1      45.436  40.385  45.015  1.00  0.00     0.177 C 
HETATM    3  C   UNL     1      44.178  41.246  44.770  1.00  0.00     0.172 C 
HETATM    4  C   UNL     1      44.303  42.634  45.410  1.00  0.00     0.197 C 
HETATM    5  C   UNL     1      44.784  42.524  46.864  1.00  0.00     0.263 C 
HETATM    6  O   UNL     1      45.991  41.788  46.956  1.00  0.00    -0.327 OA
HETATM    7  C   UNL     1      45.818  40.435  46.505  1.00  0.00     0.177 C 
BRANCH   3   8
HETATM    8  O   UNL     1      43.967  41.408  43.356  1.00  0.00    -0.380 OA
HETATM    9  H   UNL     1      43.685  40.528  43.033  1.00  0.00     0.211 HD
ENDBRANCH   3   8
BRANCH   4  10
HETATM   10  O   UNL     1      43.034  43.309  45.383  1.00  0.00    -0.378 OA
HETATM   11  H   UNL     1      42.412  42.705  45.832  1.00  0.00     0.211 HD
ENDBRANCH   4  10
BRANCH   5  12
HETATM   12  O   UNL     1      45.030  43.838  47.349  1.00  0.00    -0.359 OA
HETATM   13  H   UNL     1      44.842  43.799  48.301  1.00  0.00     0.213 HD
ENDBRANCH   5  12
BRANCH   7  14
HETATM   14  C   UNL     1      47.140  39.702  46.762  1.00  0.00     0.170 C 
BRANCH  14  15
HETATM   15  O   UNL     1      46.894  38.301  46.884  1.00  0.00    -0.380 OA
HETATM   16  H   UNL     1      46.293  38.203  47.647  1.00  0.00     0.211 HD
ENDBRANCH  14  15
ENDBRANCH   7  14
ENDBRANCH   1   2
BRANCH   1  17
HETATM   17  C   UNL     1      45.562  38.666  43.330  1.00  0.00     0.266 C 
HETATM   18  O   UNL     1      44.400  38.571  42.513  1.00  0.00    -0.326 OA
HETATM   19  C   UNL     1      44.732  38.292  41.133  1.00  0.00     0.176 C 
HETATM   20  C   UNL     1      45.345  36.887  41.048  1.00  0.00     0.170 C 
HETATM   21  C   UNL     1      46.594  36.837  41.950  1.00  0.00     0.172 C 
HETATM   22  C   UNL     1      46.281  37.304  43.377  1.00  0.00     0.197 C 
BRANCH  19  23
HETATM   23  C   UNL     1      43.444  38.428  40.318  1.00  0.00     0.170 C 
BRANCH  23  24
HETATM   24  O   UNL     1      42.331  38.040  41.127  1.00  0.00    -0.380 OA
HETATM   25  H   UNL     1      41.637  38.722  41.014  1.00  0.00     0.211 HD
ENDBRANCH  23  24
ENDBRANCH  19  23
BRANCH  20  26
HETATM   26  O   UNL     1      44.373  35.910  41.443  1.00  0.00    -0.380 OA
HETATM   27  H   UNL     1      44.762  35.331  42.119  1.00  0.00     0.211 HD
ENDBRANCH  20  26
BRANCH  21  28
HETATM   28  O   UNL     1      47.158  35.524  41.985  1.00  0.00    -0.380 OA
HETATM   29  H   UNL     1      46.410  34.915  42.143  1.00  0.00     0.211 HD
ENDBRANCH  21  28
BRANCH  22  30
HETATM   30  O   UNL     1      47.509  37.389  44.117  1.00  0.00    -0.378 OA
HETATM   31  H   UNL     1      47.429  38.180  44.684  1.00  0.00     0.211 HD
ENDBRANCH  22  30
ENDBRANCH   1  17
TORSDOF 12
ENDMDL
MODEL 9
REMARK VINA RESULT:    -4.952     10.386     12.304
REMARK INTER + INTRA:          -8.597
REMARK INTER:                  -7.883
REMARK INTRA:                  -0.714
REMARK UNBOUND:                -1.329
REMARK  12 active torsions:
REMARK  status: ('A' for Active; 'I' for Inactive)
REMARK    1  A    between atoms: O_1  and  C_12 
REMARK    2  A    between atoms: O_1  and  C_14 
REMARK    3  A    between atoms: O_4  and  C_13 
REMARK    4  A    between atoms: O_5  and  C_16 
REMARK    5  A    between atoms: O_6  and  C_17 
REMARK    6  A    between atoms: O_7  and  C_18 
REMARK    7  A    between atoms: O_8  and  C_19 
REMARK    8  A    between atoms: O_9  and  C_21 
REMARK    9  A    between atoms: O_10  and  C_22 
REMARK   10  A    between atoms: O_11  and  C_23 
REMARK   11  A    between atoms: C_15  and  C_22 
REMARK   12  A    between atoms: C_20  and  C_23 
ROOT
HETATM    1  O   UNL     1      38.957  43.774  55.745  1.00  0.00    -0.326 OA
ENDROOT
BRANCH   1   2
HETATM    2  C   UNL     1      39.850  44.874  56.014  1.00  0.00     0.177 C 
HETATM    3  C   UNL     1      39.138  46.220  55.760  1.00  0.00     0.172 C 
HETATM    4  C   UNL     1      39.935  47.402  56.325  1.00  0.00     0.197 C 
HETATM    5  C   UNL     1      40.376  47.124  57.769  1.00  0.00     0.263 C 
HETATM    6  O   UNL     1      41.095  45.907  57.866  1.00  0.00    -0.327 OA
HETATM    7  C   UNL     1      40.281  44.784  57.489  1.00  0.00     0.177 C 
BRANCH   3   8
HETATM    8  O   UNL     1      38.962  46.417  54.345  1.00  0.00    -0.380 OA
HETATM    9  H   UNL     1      39.653  45.872  53.919  1.00  0.00     0.211 HD
ENDBRANCH   3   8
BRANCH   4  10
HETATM   10  O   UNL     1      39.136  48.598  56.298  1.00  0.00    -0.378 OA
HETATM   11  H   UNL     1      39.592  49.198  55.677  1.00  0.00     0.211 HD
ENDBRANCH   4  10
BRANCH   5  12
HETATM   12  O   UNL     1      41.237  48.179  58.180  1.00  0.00    -0.359 OA
HETATM   13  H   UNL     1      40.766  48.997  57.951  1.00  0.00     0.213 HD
ENDBRANCH   5  12
BRANCH   7  14
HETATM   14  C   UNL     1      41.110  43.520  57.747  1.00  0.00     0.170 C 
BRANCH  14  15
HETATM   15  O   UNL     1      41.833  43.173  56.566  1.00  0.00    -0.380 OA
HETATM   16  H   UNL     1      41.253  42.564  56.070  1.00  0.00     0.211 HD
ENDBRANCH  14  15
ENDBRANCH   7  14
ENDBRANCH   1   2
BRANCH   1  17
HETATM   17  C   UNL     1      38.742  43.528  54.349  1.00  0.00     0.266 C 
HETATM   18  O   UNL     1      37.368  43.235  54.123  1.00  0.00    -0.326 OA
HETATM   19  C   UNL     1      37.081  43.043  52.719  1.00  0.00     0.176 C 
HETATM   20  C   UNL     1      37.802  41.776  52.236  1.00  0.00     0.170 C 
HETATM   21  C   UNL     1      39.314  41.942  52.486  1.00  0.00     0.172 C 
HETATM   22  C   UNL     1      39.610  42.321  53.942  1.00  0.00     0.197 C 
BRANCH  19  23
HETATM   23  C   UNL     1      35.560  42.952  52.573  1.00  0.00     0.170 C 
BRANCH  23  24
HETATM   24  O   UNL     1      35.243  42.162  51.425  1.00  0.00    -0.380 OA
HETATM   25  H   UNL     1      35.040  42.781  50.693  1.00  0.00     0.211 HD
ENDBRANCH  23  24
ENDBRANCH  19  23
BRANCH  20  26
HETATM   26  O   UNL     1      37.279  40.630  52.923  1.00  0.00    -0.380 OA
HETATM   27  H   UNL     1      36.312  40.704  52.972  1.00  0.00     0.211 HD
ENDBRANCH  20  26
BRANCH  21  28
HETATM   28  O   UNL     1      40.031  40.755  52.141  1.00  0.00    -0.380 OA
HETATM   29  H   UNL     1      39.555  40.018  52.573  1.00  0.00     0.211 HD
ENDBRANCH  21  28
BRANCH  22  30
HETATM   30  O   UNL     1      41.008  42.619  54.068  1.00  0.00    -0.378 OA
HETATM   31  H   UNL     1      41.109  43.559  53.820  1.00  0.00     0.211 HD
ENDBRANCH  22  30
ENDBRANCH   1  17
TORSDOF 12
ENDMDL
MODEL 10
REMARK VINA RESULT:    -4.927      4.617      8.615
REMARK INTER + INTRA:          -8.560
REMARK INTER:                  -7.353
REMARK INTRA:                  -1.206
REMARK UNBOUND:                -1.329
REMARK  12 active torsions:
REMARK  status: ('A' for Active; 'I' for Inactive)
REMARK    1  A    between atoms: O_1  and  C_12 
REMARK    2  A    between atoms: O_1  and  C_14 
REMARK    3  A    between atoms: O_4  and  C_13 
REMARK    4  A    between atoms: O_5  and  C_16 
REMARK    5  A    between atoms: O_6  and  C_17 
REMARK    6  A    between atoms: O_7  and  C_18 
REMARK    7  A    between atoms: O_8  and  C_19 
REMARK    8  A    between atoms: O_9  and  C_21 
REMARK    9  A    between atoms: O_10  and  C_22 
REMARK   10  A    between atoms: O_11  and  C_23 
REMARK   11  A    between atoms: C_15  and  C_22 
REMARK   12  A    between atoms: C_20  and  C_23 
ROOT
HETATM    1  O   UNL     1      42.040  36.966  40.877  1.00  0.00    -0.326 OA
ENDROOT
BRANCH   1   2
HETATM    2  C   UNL     1      41.451  35.702  40.510  1.00  0.00     0.177 C 
HETATM    3  C   UNL     1      42.451  34.863  39.684  1.00  0.00     0.172 C 
HETATM    4  C   UNL     1      41.992  33.408  39.540  1.00  0.00     0.197 C 
HETATM    5  C   UNL     1      41.574  32.829  40.900  1.00  0.00     0.263 C 
HETATM    6  O   UNL     1      40.591  33.635  41.525  1.00  0.00    -0.327 OA
HETATM    7  C   UNL     1      41.091  34.953  41.805  1.00  0.00     0.177 C 
BRANCH   3   8
HETATM    8  O   UNL     1      42.594  35.433  38.370  1.00  0.00    -0.380 OA
HETATM    9  H   UNL     1      43.449  35.910  38.385  1.00  0.00     0.211 HD
ENDBRANCH   3   8
BRANCH   4  10
HETATM   10  O   UNL     1      43.051  32.605  38.992  1.00  0.00    -0.378 OA
HETATM   11  H   UNL     1      43.540  33.199  38.391  1.00  0.00     0.211 HD
ENDBRANCH   4  10
BRANCH   5  12
HETATM   12  O   UNL     1      41.014  31.541  40.680  1.00  0.00    -0.359 OA
HETATM   13  H   UNL     1      40.214  31.696  40.152  1.00  0.00     0.213 HD
ENDBRANCH   5  12
BRANCH   7  14
HETATM   14  C   UNL     1      39.998  35.693  42.585  1.00  0.00     0.170 C 
BRANCH  14  15
HETATM   15  O   UNL     1      39.054  36.253  41.673  1.00  0.00    -0.380 OA
HETATM   16  H   UNL     1      38.864  35.549  41.023  1.00  0.00     0.211 HD
ENDBRANCH  14  15
ENDBRANCH   7  14
ENDBRANCH   1   2
BRANCH   1  17
HETATM   17  C   UNL     1      43.462  36.916  41.055  1.00  0.00     0.266 C 
HETATM   18  O   UNL     1      43.770  36.965  42.443  1.00  0.00    -0.326 OA
HETATM   19  C   UNL     1      45.191  36.850  42.685  1.00  0.00     0.176 C 
HETATM   20  C   UNL     1      45.891  38.094  42.118  1.00  0.00     0.170 C 
HETATM   21  C   UNL     1      45.580  38.192  40.611  1.00  0.00     0.172 C 
HETATM   22  C   UNL     1      44.072  38.136  40.339  1.00  0.00     0.197 C 
BRANCH  19  23
HETATM   23  C   UNL     1      45.386  36.697  44.195  1.00  0.00     0.170 C 
BRANCH  23  24
HETATM   24  O   UNL     1      46.682  37.180  44.555  1.00  0.00    -0.380 OA
HETATM   25  H   UNL     1      47.287  36.972  43.813  1.00  0.00     0.211 HD
ENDBRANCH  23  24
ENDBRANCH  19  23
BRANCH  20  26
HETATM   26  O   UNL     1      45.447  39.262  42.822  1.00  0.00    -0.380 OA
HETATM   27  H   UNL     1      44.897  39.800  42.229  1.00  0.00     0.211 HD
ENDBRANCH  20  26
BRANCH  21  28
HETATM   28  O   UNL     1      46.129  39.384  40.044  1.00  0.00    -0.380 OA
HETATM   29  H   UNL     1      45.484  40.093  40.232  1.00  0.00     0.211 HD
ENDBRANCH  21  28
BRANCH  22  30
HETATM   30  O   UNL     1      43.860  38.067  38.920  1.00  0.00    -0.378 OA
HETATM   31  H   UNL     1      43.895  38.988  38.596  1.00  0.00     0.211 HD
ENDBRANCH  22  30
ENDBRANCH   1  17
TORSDOF 12
ENDMDL
