MODEL 1
REMARK VINA RESULT:    -6.030      0.000      0.000
REMARK INTER + INTRA:         -10.316
REMARK INTER:                  -8.849
REMARK INTRA:                  -1.466
REMARK UNBOUND:                -1.466
REMARK  12 active torsions:
REMARK  status: ('A' for Active; 'I' for Inactive)
REMARK    1  A    between atoms: O_1  and  C_12 
REMARK    2  A    between atoms: O_1  and  C_14 
REMARK    3  A    between atoms: O_4  and  C_13 
REMARK    4  A    between atoms: O_5  and  C_16 
REMARK    5  A    between atoms: O_6  and  C_17 
REMARK    6  A    between atoms: O_7  and  C_18 
REMARK    7  A    between atoms: O_8  and  C_19 
REMARK    8  A    between atoms: O_9  and  C_21 
REMARK    9  A    between atoms: O_10  and  C_22 
REMARK   10  A    between atoms: O_11  and  C_23 
REMARK   11  A    between atoms: C_15  and  C_22 
REMARK   12  A    between atoms: C_20  and  C_23 
ROOT
HETATM    1  O   UNL     1      43.993  40.967  45.159  1.00  0.00    -0.326 OA
ENDROOT
BRANCH   1   2
HETATM    2  C   UNL     1      44.529  42.285  44.922  1.00  0.00     0.177 C 
HETATM    3  C   UNL     1      43.744  42.989  43.794  1.00  0.00     0.172 C 
HETATM    4  C   UNL     1      44.069  44.486  43.722  1.00  0.00     0.197 C 
HETATM    5  C   UNL     1      43.991  45.129  45.115  1.00  0.00     0.263 C 
HETATM    6  O   UNL     1      44.817  44.453  46.045  1.00  0.00    -0.327 OA
HETATM    7  C   UNL     1      44.398  43.090  46.227  1.00  0.00     0.177 C 
BRANCH   3   8
HETATM    8  O   UNL     1      44.067  42.387  42.527  1.00  0.00    -0.380 OA
HETATM    9  H   UNL     1      44.110  41.424  42.701  1.00  0.00     0.211 HD
ENDBRANCH   3   8
BRANCH   4  10
HETATM   10  O   UNL     1      43.147  45.153  42.843  1.00  0.00    -0.378 OA
HETATM   11  H   UNL     1      42.283  45.108  43.294  1.00  0.00     0.211 HD
ENDBRANCH   4  10
BRANCH   5  12
HETATM   12  O   UNL     1      44.452  46.471  45.009  1.00  0.00    -0.359 OA
HETATM   13  H   UNL     1      45.379  46.401  44.728  1.00  0.00     0.213 HD
ENDBRANCH   5  12
BRANCH   7  14
HETATM   14  C   UNL     1      45.274  42.493  47.335  1.00  0.00     0.170 C 
BRANCH  14  15
HETATM   15  O   UNL     1      44.583  41.414  47.962  1.00  0.00    -0.380 OA
HETATM   16  H   UNL     1      45.260  40.925  48.470  1.00  0.00     0.211 HD
ENDBRANCH  14  15
ENDBRANCH   7  14
ENDBRANCH   1   2
BRANCH   1  17
HETATM   17  C   UNL     1      44.730  39.917  44.518  1.00  0.00     0.266 C 
HETATM   18  O   UNL     1      44.045  39.504  43.341  1.00  0.00    -0.326 OA
HETATM   19  C   UNL     1      44.779  38.490  42.617  1.00  0.00     0.176 C 
HETATM   20  C   UNL     1      44.828  37.213  43.468  1.00  0.00     0.170 C 
HETATM   21  C   UNL     1      45.502  37.544  44.815  1.00  0.00     0.172 C 
HETATM   22  C   UNL     1      44.832  38.739  45.505  1.00  0.00     0.197 C 
BRANCH  19  23
HETATM   23  C   UNL     1      44.068  38.283  41.278  1.00  0.00     0.170 C 
BRANCH  23  24
HETATM   24  O   UNL     1      42.685  38.618  41.420  1.00  0.00    -0.380 OA
HETATM   25  H   UNL     1      42.435  38.433  42.349  1.00  0.00     0.211 HD
ENDBRANCH  23  24
ENDBRANCH  19  23
BRANCH  20  26
HETATM   26  O   UNL     1      43.500  36.705  43.656  1.00  0.00    -0.380 OA
HETATM   27  H   UNL     1      42.901  37.145  43.029  1.00  0.00     0.211 HD
ENDBRANCH  20  26
BRANCH  21  28
HETATM   28  O   UNL     1      45.494  36.414  45.690  1.00  0.00    -0.380 OA
HETATM   29  H   UNL     1      46.422  36.278  45.962  1.00  0.00     0.211 HD
ENDBRANCH  21  28
BRANCH  22  30
HETATM   30  O   UNL     1      45.601  39.095  46.664  1.00  0.00    -0.378 OA
HETATM   31  H   UNL     1      46.320  39.674  46.345  1.00  0.00     0.211 HD
ENDBRANCH  22  30
ENDBRANCH   1  17
TORSDOF 12
ENDMDL
MODEL 2
REMARK VINA RESULT:    -5.511      1.439      6.111
REMARK INTER + INTRA:          -9.555
REMARK INTER:                  -8.140
REMARK INTRA:                  -1.415
REMARK UNBOUND:                -1.466
REMARK  12 active torsions:
REMARK  status: ('A' for Active; 'I' for Inactive)
REMARK    1  A    between atoms: O_1  and  C_12 
REMARK    2  A    between atoms: O_1  and  C_14 
REMARK    3  A    between atoms: O_4  and  C_13 
REMARK    4  A    between atoms: O_5  and  C_16 
REMARK    5  A    between atoms: O_6  and  C_17 
REMARK    6  A    between atoms: O_7  and  C_18 
REMARK    7  A    between atoms: O_8  and  C_19 
REMARK    8  A    between atoms: O_9  and  C_21 
REMARK    9  A    between atoms: O_10  and  C_22 
REMARK   10  A    between atoms: O_11  and  C_23 
REMARK   11  A    between atoms: C_15  and  C_22 
REMARK   12  A    between atoms: C_20  and  C_23 
ROOT
HETATM    1  O   UNL     1      44.820  39.493  43.592  1.00  0.00    -0.326 OA
ENDROOT
BRANCH   1   2
HETATM    2  C   UNL     1      43.857  38.618  42.972  1.00  0.00     0.177 C 
HETATM    3  C   UNL     1      43.657  39.002  41.490  1.00  0.00     0.172 C 
HETATM    4  C   UNL     1      42.890  37.921  40.719  1.00  0.00     0.197 C 
HETATM    5  C   UNL     1      43.483  36.531  40.991  1.00  0.00     0.263 C 
HETATM    6  O   UNL     1      43.537  36.253  42.379  1.00  0.00    -0.327 OA
HETATM    7  C   UNL     1      44.394  37.179  43.068  1.00  0.00     0.177 C 
BRANCH   3   8
HETATM    8  O   UNL     1      42.924  40.238  41.402  1.00  0.00    -0.380 OA
HETATM    9  H   UNL     1      43.096  40.578  40.501  1.00  0.00     0.211 HD
ENDBRANCH   3   8
BRANCH   4  10
HETATM   10  O   UNL     1      42.942  38.187  39.306  1.00  0.00    -0.378 OA
HETATM   11  H   UNL     1      43.891  38.280  39.097  1.00  0.00     0.211 HD
ENDBRANCH   4  10
BRANCH   5  12
HETATM   12  O   UNL     1      42.640  35.563  40.380  1.00  0.00    -0.359 OA
HETATM   13  H   UNL     1      42.940  35.506  39.458  1.00  0.00     0.213 HD
ENDBRANCH   5  12
BRANCH   7  14
HETATM   14  C   UNL     1      44.477  36.716  44.527  1.00  0.00     0.170 C 
BRANCH  14  15
HETATM   15  O   UNL     1      45.730  37.111  45.084  1.00  0.00    -0.380 OA
HETATM   16  H   UNL     1      45.604  37.102  46.053  1.00  0.00     0.211 HD
ENDBRANCH  14  15
ENDBRANCH   7  14
ENDBRANCH   1   2
BRANCH   1  17
HETATM   17  C   UNL     1      44.234  40.591  44.304  1.00  0.00     0.266 C 
HETATM   18  O   UNL     1      44.398  41.788  43.553  1.00  0.00    -0.326 OA
HETATM   19  C   UNL     1      43.765  42.919  44.194  1.00  0.00     0.176 C 
HETATM   20  C   UNL     1      44.502  43.218  45.508  1.00  0.00     0.170 C 
HETATM   21  C   UNL     1      44.450  41.961  46.399  1.00  0.00     0.172 C 
HETATM   22  C   UNL     1      44.959  40.719  45.658  1.00  0.00     0.197 C 
BRANCH  19  23
HETATM   23  C   UNL     1      43.814  44.088  43.208  1.00  0.00     0.170 C 
BRANCH  23  24
HETATM   24  O   UNL     1      44.884  43.880  42.282  1.00  0.00    -0.380 OA
HETATM   25  H   UNL     1      45.467  43.190  42.661  1.00  0.00     0.211 HD
ENDBRANCH  23  24
ENDBRANCH  19  23
BRANCH  20  26
HETATM   26  O   UNL     1      45.854  43.607  45.227  1.00  0.00    -0.380 OA
HETATM   27  H   UNL     1      46.439  42.845  45.371  1.00  0.00     0.211 HD
ENDBRANCH  20  26
BRANCH  21  28
HETATM   28  O   UNL     1      45.201  42.146  47.602  1.00  0.00    -0.380 OA
HETATM   29  H   UNL     1      44.928  43.015  47.958  1.00  0.00     0.211 HD
ENDBRANCH  21  28
BRANCH  22  30
HETATM   30  O   UNL     1      44.733  39.564  46.481  1.00  0.00    -0.378 OA
HETATM   31  H   UNL     1      44.794  38.791  45.886  1.00  0.00     0.211 HD
ENDBRANCH  22  30
ENDBRANCH   1  17
TORSDOF 12
ENDMDL
MODEL 3
REMARK VINA RESULT:    -5.469      1.527      1.762
REMARK INTER + INTRA:          -9.493
REMARK INTER:                  -8.391
REMARK INTRA:                  -1.102
REMARK UNBOUND:                -1.466
REMARK  12 active torsions:
REMARK  status: ('A' for Active; 'I' for Inactive)
REMARK    1  A    between atoms: O_1  and  C_12 
REMARK    2  A    between atoms: O_1  and  C_14 
REMARK    3  A    between atoms: O_4  and  C_13 
REMARK    4  A    between atoms: O_5  and  C_16 
REMARK    5  A    between atoms: O_6  and  C_17 
REMARK    6  A    between atoms: O_7  and  C_18 
REMARK    7  A    between atoms: O_8  and  C_19 
REMARK    8  A    between atoms: O_9  and  C_21 
REMARK    9  A    between atoms: O_10  and  C_22 
REMARK   10  A    between atoms: O_11  and  C_23 
REMARK   11  A    between atoms: C_15  and  C_22 
REMARK   12  A    between atoms: C_20  and  C_23 
ROOT
HETATM    1  O   UNL     1      44.486  40.132  45.110  1.00  0.00    -0.326 OA
ENDROOT
BRANCH   1   2
HETATM    2  C   UNL     1      44.823  41.489  45.465  1.00  0.00     0.177 C 
HETATM    3  C   UNL     1      43.977  42.485  44.643  1.00  0.00     0.172 C 
HETATM    4  C   UNL     1      44.074  43.910  45.200  1.00  0.00     0.197 C 
HETATM    5  C   UNL     1      43.855  43.919  46.720  1.00  0.00     0.263 C 
HETATM    6  O   UNL     1      44.744  43.033  47.377  1.00  0.00    -0.327 OA
HETATM    7  C   UNL     1      44.531  41.673  46.965  1.00  0.00     0.177 C 
BRANCH   3   8
HETATM    8  O   UNL     1      44.427  42.494  43.276  1.00  0.00    -0.380 OA
HETATM    9  H   UNL     1      44.647  43.428  43.081  1.00  0.00     0.211 HD
ENDBRANCH   3   8
BRANCH   4  10
HETATM   10  O   UNL     1      43.090  44.755  44.578  1.00  0.00    -0.378 OA
HETATM   11  H   UNL     1      43.042  44.453  43.651  1.00  0.00     0.211 HD
ENDBRANCH   4  10
BRANCH   5  12
HETATM   12  O   UNL     1      44.111  45.234  47.197  1.00  0.00    -0.359 OA
HETATM   13  H   UNL     1      45.027  45.426  46.939  1.00  0.00     0.213 HD
ENDBRANCH   5  12
BRANCH   7  14
HETATM   14  C   UNL     1      45.452  40.793  47.819  1.00  0.00     0.170 C 
BRANCH  14  15
HETATM   15  O   UNL     1      46.697  40.610  47.147  1.00  0.00    -0.380 OA
HETATM   16  H   UNL     1      46.929  39.669  47.271  1.00  0.00     0.211 HD
ENDBRANCH  14  15
ENDBRANCH   7  14
ENDBRANCH   1   2
BRANCH   1  17
HETATM   17  C   UNL     1      45.064  39.694  43.873  1.00  0.00     0.266 C 
HETATM   18  O   UNL     1      44.029  39.387  42.947  1.00  0.00    -0.326 OA
HETATM   19  C   UNL     1      44.556  39.003  41.656  1.00  0.00     0.176 C 
HETATM   20  C   UNL     1      45.309  37.672  41.806  1.00  0.00     0.170 C 
HETATM   21  C   UNL     1      46.434  37.856  42.844  1.00  0.00     0.172 C 
HETATM   22  C   UNL     1      45.901  38.433  44.162  1.00  0.00     0.197 C 
BRANCH  19  23
HETATM   23  C   UNL     1      43.373  38.909  40.690  1.00  0.00     0.170 C 
BRANCH  23  24
HETATM   24  O   UNL     1      43.734  38.082  39.581  1.00  0.00    -0.380 OA
HETATM   25  H   UNL     1      44.599  38.402  39.249  1.00  0.00     0.211 HD
ENDBRANCH  23  24
ENDBRANCH  19  23
BRANCH  20  26
HETATM   26  O   UNL     1      44.393  36.641  42.201  1.00  0.00    -0.380 OA
HETATM   27  H   UNL     1      44.274  36.675  43.165  1.00  0.00     0.211 HD
ENDBRANCH  20  26
BRANCH  21  28
HETATM   28  O   UNL     1      47.113  36.624  43.097  1.00  0.00    -0.380 OA
HETATM   29  H   UNL     1      46.422  35.933  43.108  1.00  0.00     0.211 HD
ENDBRANCH  21  28
BRANCH  22  30
HETATM   30  O   UNL     1      47.013  38.730  45.020  1.00  0.00    -0.378 OA
HETATM   31  H   UNL     1      47.801  38.755  44.444  1.00  0.00     0.211 HD
ENDBRANCH  22  30
ENDBRANCH   1  17
TORSDOF 12
ENDMDL
MODEL 4
REMARK VINA RESULT:    -5.396      1.529      6.204
REMARK INTER + INTRA:          -9.386
REMARK INTER:                  -7.790
REMARK INTRA:                  -1.596
REMARK UNBOUND:                -1.466
REMARK  12 active torsions:
REMARK  status: ('A' for Active; 'I' for Inactive)
REMARK    1  A    between atoms: O_1  and  C_12 
REMARK    2  A    between atoms: O_1  and  C_14 
REMARK    3  A    between atoms: O_4  and  C_13 
REMARK    4  A    between atoms: O_5  and  C_16 
REMARK    5  A    between atoms: O_6  and  C_17 
REMARK    6  A    between atoms: O_7  and  C_18 
REMARK    7  A    between atoms: O_8  and  C_19 
REMARK    8  A    between atoms: O_9  and  C_21 
REMARK    9  A    between atoms: O_10  and  C_22 
REMARK   10  A    between atoms: O_11  and  C_23 
REMARK   11  A    between atoms: C_15  and  C_22 
REMARK   12  A    between atoms: C_20  and  C_23 
ROOT
HETATM    1  O   UNL     1      45.964  39.080  44.091  1.00  0.00    -0.326 OA
ENDROOT
BRANCH   1   2
HETATM    2  C   UNL     1      45.188  38.010  43.514  1.00  0.00     0.177 C 
HETATM    3  C   UNL     1      44.415  37.252  44.615  1.00  0.00     0.172 C 
HETATM    4  C   UNL     1      43.350  36.320  44.025  1.00  0.00     0.197 C 
HETATM    5  C   UNL     1      42.501  37.055  42.976  1.00  0.00     0.263 C 
HETATM    6  O   UNL     1      43.312  37.636  41.970  1.00  0.00    -0.327 OA
HETATM    7  C   UNL     1      44.195  38.630  42.515  1.00  0.00     0.177 C 
BRANCH   3   8
HETATM    8  O   UNL     1      45.331  36.466  45.398  1.00  0.00    -0.380 OA
HETATM    9  H   UNL     1      44.936  35.571  45.440  1.00  0.00     0.211 HD
ENDBRANCH   3   8
BRANCH   4  10
HETATM   10  O   UNL     1      42.489  35.828  45.066  1.00  0.00    -0.378 OA
HETATM   11  H   UNL     1      42.509  36.513  45.762  1.00  0.00     0.211 HD
ENDBRANCH   4  10
BRANCH   5  12
HETATM   12  O   UNL     1      41.643  36.105  42.357  1.00  0.00    -0.359 OA
HETATM   13  H   UNL     1      41.653  35.330  42.943  1.00  0.00     0.213 HD
ENDBRANCH   5  12
BRANCH   7  14
HETATM   14  C   UNL     1      44.929  39.276  41.334  1.00  0.00     0.170 C 
BRANCH  14  15
HETATM   15  O   UNL     1      44.948  40.694  41.500  1.00  0.00    -0.380 OA
HETATM   16  H   UNL     1      44.055  41.001  41.254  1.00  0.00     0.211 HD
ENDBRANCH  14  15
ENDBRANCH   7  14
ENDBRANCH   1   2
BRANCH   1  17
HETATM   17  C   UNL     1      45.204  39.961  44.929  1.00  0.00     0.266 C 
HETATM   18  O   UNL     1      45.031  41.212  44.273  1.00  0.00    -0.326 OA
HETATM   19  C   UNL     1      44.213  42.119  45.047  1.00  0.00     0.176 C 
HETATM   20  C   UNL     1      44.969  42.491  46.331  1.00  0.00     0.170 C 
HETATM   21  C   UNL     1      45.275  41.199  47.115  1.00  0.00     0.172 C 
HETATM   22  C   UNL     1      45.990  40.162  46.240  1.00  0.00     0.197 C 
BRANCH  19  23
HETATM   23  C   UNL     1      43.916  43.332  44.162  1.00  0.00     0.170 C 
BRANCH  23  24
HETATM   24  O   UNL     1      44.865  43.380  43.093  1.00  0.00    -0.380 OA
HETATM   25  H   UNL     1      45.757  43.406  43.497  1.00  0.00     0.211 HD
ENDBRANCH  23  24
ENDBRANCH  19  23
BRANCH  20  26
HETATM   26  O   UNL     1      46.169  43.201  45.998  1.00  0.00    -0.380 OA
HETATM   27  H   UNL     1      46.028  43.692  45.172  1.00  0.00     0.211 HD
ENDBRANCH  20  26
BRANCH  21  28
HETATM   28  O   UNL     1      46.060  41.472  48.278  1.00  0.00    -0.380 OA
HETATM   29  H   UNL     1      46.356  42.399  48.191  1.00  0.00     0.211 HD
ENDBRANCH  21  28
BRANCH  22  30
HETATM   30  O   UNL     1      46.099  38.933  46.975  1.00  0.00    -0.378 OA
HETATM   31  H   UNL     1      46.438  39.175  47.858  1.00  0.00     0.211 HD
ENDBRANCH  22  30
ENDBRANCH   1  17
TORSDOF 12
ENDMDL
MODEL 5
REMARK VINA RESULT:    -5.349      1.504      3.772
REMARK INTER + INTRA:          -9.318
REMARK INTER:                  -8.320
REMARK INTRA:                  -0.998
REMARK UNBOUND:                -1.466
REMARK  12 active torsions:
REMARK  status: ('A' for Active; 'I' for Inactive)
REMARK    1  A    between atoms: O_1  and  C_12 
REMARK    2  A    between atoms: O_1  and  C_14 
REMARK    3  A    between atoms: O_4  and  C_13 
REMARK    4  A    between atoms: O_5  and  C_16 
REMARK    5  A    between atoms: O_6  and  C_17 
REMARK    6  A    between atoms: O_7  and  C_18 
REMARK    7  A    between atoms: O_8  and  C_19 
REMARK    8  A    between atoms: O_9  and  C_21 
REMARK    9  A    between atoms: O_10  and  C_22 
REMARK   10  A    between atoms: O_11  and  C_23 
REMARK   11  A    between atoms: C_15  and  C_22 
REMARK   12  A    between atoms: C_20  and  C_23 
ROOT
HETATM    1  O   UNL     1      44.781  40.644  43.835  1.00  0.00    -0.326 OA
ENDROOT
BRANCH   1   2
HETATM    2  C   UNL     1      44.322  41.540  44.867  1.00  0.00     0.177 C 
HETATM    3  C   UNL     1      45.223  41.430  46.115  1.00  0.00     0.172 C 
HETATM    4  C   UNL     1      44.967  42.572  47.106  1.00  0.00     0.197 C 
HETATM    5  C   UNL     1      44.960  43.928  46.387  1.00  0.00     0.263 C 
HETATM    6  O   UNL     1      44.034  43.941  45.314  1.00  0.00    -0.327 OA
HETATM    7  C   UNL     1      44.380  42.974  44.309  1.00  0.00     0.177 C 
BRANCH   3   8
HETATM    8  O   UNL     1      44.978  40.178  46.783  1.00  0.00    -0.380 OA
HETATM    9  H   UNL     1      44.411  39.665  46.172  1.00  0.00     0.211 HD
ENDBRANCH   3   8
BRANCH   4  10
HETATM   10  O   UNL     1      45.984  42.584  48.124  1.00  0.00    -0.378 OA
HETATM   11  H   UNL     1      46.822  42.414  47.652  1.00  0.00     0.211 HD
ENDBRANCH   4  10
BRANCH   5  12
HETATM   12  O   UNL     1      44.565  44.924  47.322  1.00  0.00    -0.359 OA
HETATM   13  H   UNL     1      44.133  44.439  48.045  1.00  0.00     0.213 HD
ENDBRANCH   5  12
BRANCH   7  14
HETATM   14  C   UNL     1      43.394  43.156  43.150  1.00  0.00     0.170 C 
BRANCH  14  15
HETATM   15  O   UNL     1      42.886  44.490  43.158  1.00  0.00    -0.380 OA
HETATM   16  H   UNL     1      43.666  45.071  43.066  1.00  0.00     0.211 HD
ENDBRANCH  14  15
ENDBRANCH   7  14
ENDBRANCH   1   2
BRANCH   1  17
HETATM   17  C   UNL     1      44.002  39.446  43.717  1.00  0.00     0.266 C 
HETATM   18  O   UNL     1      44.644  38.390  44.423  1.00  0.00    -0.326 OA
HETATM   19  C   UNL     1      43.866  37.171  44.394  1.00  0.00     0.176 C 
HETATM   20  C   UNL     1      43.813  36.654  42.948  1.00  0.00     0.170 C 
HETATM   21  C   UNL     1      43.186  37.745  42.058  1.00  0.00     0.172 C 
HETATM   22  C   UNL     1      43.902  39.091  42.221  1.00  0.00     0.197 C 
BRANCH  19  23
HETATM   23  C   UNL     1      44.534  36.182  45.352  1.00  0.00     0.170 C 
BRANCH  23  24
HETATM   24  O   UNL     1      45.899  36.561  45.546  1.00  0.00    -0.380 OA
HETATM   25  H   UNL     1      46.038  37.404  45.067  1.00  0.00     0.211 HD
ENDBRANCH  23  24
ENDBRANCH  19  23
BRANCH  20  26
HETATM   26  O   UNL     1      45.133  36.311  42.508  1.00  0.00    -0.380 OA
HETATM   27  H   UNL     1      45.530  37.080  42.067  1.00  0.00     0.211 HD
ENDBRANCH  20  26
BRANCH  21  28
HETATM   28  O   UNL     1      43.193  37.358  40.681  1.00  0.00    -0.380 OA
HETATM   29  H   UNL     1      44.057  37.644  40.326  1.00  0.00     0.211 HD
ENDBRANCH  21  28
BRANCH  22  30
HETATM   30  O   UNL     1      43.175  40.094  41.495  1.00  0.00    -0.378 OA
HETATM   31  H   UNL     1      42.252  39.778  41.448  1.00  0.00     0.211 HD
ENDBRANCH  22  30
ENDBRANCH   1  17
TORSDOF 12
ENDMDL
MODEL 6
REMARK VINA RESULT:    -5.306      2.245      3.393
REMARK INTER + INTRA:          -9.254
REMARK INTER:                  -7.935
REMARK INTRA:                  -1.320
REMARK UNBOUND:                -1.466
REMARK  12 active torsions:
REMARK  status: ('A' for Active; 'I' for Inactive)
REMARK    1  A    between atoms: O_1  and  C_12 
REMARK    2  A    between atoms: O_1  and  C_14 
REMARK    3  A    between atoms: O_4  and  C_13 
REMARK    4  A    between atoms: O_5  and  C_16 
REMARK    5  A    between atoms: O_6  and  C_17 
REMARK    6  A    between atoms: O_7  and  C_18 
REMARK    7  A    between atoms: O_8  and  C_19 
REMARK    8  A    between atoms: O_9  and  C_21 
REMARK    9  A    between atoms: O_10  and  C_22 
REMARK   10  A    between atoms: O_11  and  C_23 
REMARK   11  A    between atoms: C_15  and  C_22 
REMARK   12  A    between atoms: C_20  and  C_23 
ROOT
HETATM    1  O   UNL     1      45.222  38.266  46.137  1.00  0.00    -0.326 OA
ENDROOT
BRANCH   1   2
HETATM    2  C   UNL     1      45.123  39.498  46.881  1.00  0.00     0.177 C 
HETATM    3  C   UNL     1      46.232  40.480  46.446  1.00  0.00     0.172 C 
HETATM    4  C   UNL     1      45.980  41.896  46.976  1.00  0.00     0.197 C 
HETATM    5  C   UNL     1      44.534  42.333  46.700  1.00  0.00     0.263 C 
HETATM    6  O   UNL     1      43.603  41.400  47.220  1.00  0.00    -0.327 OA
HETATM    7  C   UNL     1      43.742  40.114  46.594  1.00  0.00     0.177 C 
BRANCH   3   8
HETATM    8  O   UNL     1      47.506  40.024  46.939  1.00  0.00    -0.380 OA
HETATM    9  H   UNL     1      47.296  39.397  47.660  1.00  0.00     0.211 HD
ENDBRANCH   3   8
BRANCH   4  10
HETATM   10  O   UNL     1      46.880  42.828  46.352  1.00  0.00    -0.378 OA
HETATM   11  H   UNL     1      47.702  42.782  46.876  1.00  0.00     0.211 HD
ENDBRANCH   4  10
BRANCH   5  12
HETATM   12  O   UNL     1      44.317  43.580  47.348  1.00  0.00    -0.359 OA
HETATM   13  H   UNL     1      45.085  44.127  47.115  1.00  0.00     0.213 HD
ENDBRANCH   5  12
BRANCH   7  14
HETATM   14  C   UNL     1      42.617  39.225  47.136  1.00  0.00     0.170 C 
BRANCH  14  15
HETATM   15  O   UNL     1      42.230  38.280  46.138  1.00  0.00    -0.380 OA
HETATM   16  H   UNL     1      42.503  38.670  45.285  1.00  0.00     0.211 HD
ENDBRANCH  14  15
ENDBRANCH   7  14
ENDBRANCH   1   2
BRANCH   1  17
HETATM   17  C   UNL     1      45.491  38.451  44.741  1.00  0.00     0.266 C 
HETATM   18  O   UNL     1      44.300  38.231  43.993  1.00  0.00    -0.326 OA
HETATM   19  C   UNL     1      44.497  38.470  42.581  1.00  0.00     0.176 C 
HETATM   20  C   UNL     1      45.464  37.411  42.031  1.00  0.00     0.170 C 
HETATM   21  C   UNL     1      46.791  37.504  42.811  1.00  0.00     0.172 C 
HETATM   22  C   UNL     1      46.566  37.428  44.326  1.00  0.00     0.197 C 
BRANCH  19  23
HETATM   23  C   UNL     1      43.121  38.419  41.914  1.00  0.00     0.170 C 
BRANCH  23  24
HETATM   24  O   UNL     1      42.878  39.654  41.236  1.00  0.00    -0.380 OA
HETATM   25  H   UNL     1      42.154  40.110  41.712  1.00  0.00     0.211 HD
ENDBRANCH  23  24
ENDBRANCH  19  23
BRANCH  20  26
HETATM   26  O   UNL     1      44.875  36.109  42.151  1.00  0.00    -0.380 OA
HETATM   27  H   UNL     1      44.593  35.807  41.271  1.00  0.00     0.211 HD
ENDBRANCH  20  26
BRANCH  21  28
HETATM   28  O   UNL     1      47.703  36.479  42.406  1.00  0.00    -0.380 OA
HETATM   29  H   UNL     1      48.470  36.549  43.007  1.00  0.00     0.211 HD
ENDBRANCH  21  28
BRANCH  22  30
HETATM   30  O   UNL     1      47.812  37.682  44.992  1.00  0.00    -0.378 OA
HETATM   31  H   UNL     1      48.498  37.671  44.297  1.00  0.00     0.211 HD
ENDBRANCH  22  30
ENDBRANCH   1  17
TORSDOF 12
ENDMDL
MODEL 7
REMARK VINA RESULT:    -5.166      5.240      8.108
REMARK INTER + INTRA:          -9.048
REMARK INTER:                  -7.700
REMARK INTRA:                  -1.348
REMARK UNBOUND:                -1.466
REMARK  12 active torsions:
REMARK  status: ('A' for Active; 'I' for Inactive)
REMARK    1  A    between atoms: O_1  and  C_12 
REMARK    2  A    between atoms: O_1  and  C_14 
REMARK    3  A    between atoms: O_4  and  C_13 
REMARK    4  A    between atoms: O_5  and  C_16 
REMARK    5  A    between atoms: O_6  and  C_17 
REMARK    6  A    between atoms: O_7  and  C_18 
REMARK    7  A    between atoms: O_8  and  C_19 
REMARK    8  A    between atoms: O_9  and  C_21 
REMARK    9  A    between atoms: O_10  and  C_22 
REMARK   10  A    between atoms: O_11  and  C_23 
REMARK   11  A    between atoms: C_15  and  C_22 
REMARK   12  A    between atoms: C_20  and  C_23 
ROOT
HETATM    1  O   UNL     1      41.629  35.691  40.385  1.00  0.00    -0.326 OA
ENDROOT
BRANCH   1   2
HETATM    2  C   UNL     1      42.970  36.152  40.649  1.00  0.00     0.177 C 
HETATM    3  C   UNL     1      43.552  36.853  39.403  1.00  0.00     0.172 C 
HETATM    4  C   UNL     1      44.837  37.624  39.731  1.00  0.00     0.197 C 
HETATM    5  C   UNL     1      44.646  38.497  40.980  1.00  0.00     0.263 C 
HETATM    6  O   UNL     1      44.193  37.731  42.082  1.00  0.00    -0.327 OA
HETATM    7  C   UNL     1      42.906  37.146  41.822  1.00  0.00     0.177 C 
BRANCH   3   8
HETATM    8  O   UNL     1      43.848  35.876  38.389  1.00  0.00    -0.380 OA
HETATM    9  H   UNL     1      43.019  35.771  37.879  1.00  0.00     0.211 HD
ENDBRANCH   3   8
BRANCH   4  10
HETATM   10  O   UNL     1      45.209  38.462  38.623  1.00  0.00    -0.378 OA
HETATM   11  H   UNL     1      46.048  38.090  38.290  1.00  0.00     0.211 HD
ENDBRANCH   4  10
BRANCH   5  12
HETATM   12  O   UNL     1      45.906  39.060  41.322  1.00  0.00    -0.359 OA
HETATM   13  H   UNL     1      46.432  38.320  41.668  1.00  0.00     0.213 HD
ENDBRANCH   5  12
BRANCH   7  14
HETATM   14  C   UNL     1      42.459  36.449  43.113  1.00  0.00     0.170 C 
BRANCH  14  15
HETATM   15  O   UNL     1      41.050  36.225  43.072  1.00  0.00    -0.380 OA
HETATM   16  H   UNL     1      40.738  36.332  43.992  1.00  0.00     0.211 HD
ENDBRANCH  14  15
ENDBRANCH   7  14
ENDBRANCH   1   2
BRANCH   1  17
HETATM   17  C   UNL     1      41.563  34.348  39.887  1.00  0.00     0.266 C 
HETATM   18  O   UNL     1      41.320  34.372  38.485  1.00  0.00    -0.326 OA
HETATM   19  C   UNL     1      41.310  33.042  37.916  1.00  0.00     0.176 C 
HETATM   20  C   UNL     1      40.104  32.274  38.476  1.00  0.00     0.170 C 
HETATM   21  C   UNL     1      40.217  32.230  40.013  1.00  0.00     0.172 C 
HETATM   22  C   UNL     1      40.406  33.631  40.608  1.00  0.00     0.197 C 
BRANCH  19  23
HETATM   23  C   UNL     1      41.259  33.198  36.395  1.00  0.00     0.170 C 
BRANCH  23  24
HETATM   24  O   UNL     1      40.572  32.080  35.828  1.00  0.00    -0.380 OA
HETATM   25  H   UNL     1      40.282  32.341  34.930  1.00  0.00     0.211 HD
ENDBRANCH  23  24
ENDBRANCH  19  23
BRANCH  20  26
HETATM   26  O   UNL     1      38.888  32.910  38.057  1.00  0.00    -0.380 OA
HETATM   27  H   UNL     1      38.489  33.362  38.819  1.00  0.00     0.211 HD
ENDBRANCH  20  26
BRANCH  21  28
HETATM   28  O   UNL     1      39.073  31.607  40.600  1.00  0.00    -0.380 OA
HETATM   29  H   UNL     1      39.359  31.292  41.480  1.00  0.00     0.211 HD
ENDBRANCH  21  28
BRANCH  22  30
HETATM   30  O   UNL     1      40.666  33.506  42.014  1.00  0.00    -0.378 OA
HETATM   31  H   UNL     1      39.957  32.937  42.371  1.00  0.00     0.211 HD
ENDBRANCH  22  30
ENDBRANCH   1  17
TORSDOF 12
ENDMDL
MODEL 8
REMARK VINA RESULT:    -4.796      2.094      6.486
REMARK INTER + INTRA:          -8.506
REMARK INTER:                  -7.486
REMARK INTRA:                  -1.020
REMARK UNBOUND:                -1.466
REMARK  12 active torsions:
REMARK  status: ('A' for Active; 'I' for Inactive)
REMARK    1  A    between atoms: O_1  and  C_12 
REMARK    2  A    between atoms: O_1  and  C_14 
REMARK    3  A    between atoms: O_4  and  C_13 
REMARK    4  A    between atoms: O_5  and  C_16 
REMARK    5  A    between atoms: O_6  and  C_17 
REMARK    6  A    between atoms: O_7  and  C_18 
REMARK    7  A    between atoms: O_8  and  C_19 
REMARK    8  A    between atoms: O_9  and  C_21 
REMARK    9  A    between atoms: O_10  and  C_22 
REMARK   10  A    between atoms: O_11  and  C_23 
REMARK   11  A    between atoms: C_15  and  C_22 
REMARK   12  A    between atoms: C_20  and  C_23 
ROOT
HETATM    1  O   UNL     1      43.918  39.809  44.061  1.00  0.00    -0.326 OA
ENDROOT
BRANCH   1   2
HETATM    2  C   UNL     1      44.135  38.490  43.518  1.00  0.00     0.177 C 
HETATM    3  C   UNL     1      43.048  37.516  44.022  1.00  0.00     0.172 C 
HETATM    4  C   UNL     1      43.055  36.199  43.237  1.00  0.00     0.197 C 
HETATM    5  C   UNL     1      43.088  36.464  41.725  1.00  0.00     0.263 C 
HETATM    6  O   UNL     1      44.177  37.298  41.369  1.00  0.00    -0.327 OA
HETATM    7  C   UNL     1      44.071  38.592  41.984  1.00  0.00     0.177 C 
BRANCH   3   8
HETATM    8  O   UNL     1      43.265  37.222  45.414  1.00  0.00    -0.380 OA
HETATM    9  H   UNL     1      44.236  37.158  45.518  1.00  0.00     0.211 HD
ENDBRANCH   3   8
BRANCH   4  10
HETATM   10  O   UNL     1      41.885  35.425  43.554  1.00  0.00    -0.378 OA
HETATM   11  H   UNL     1      41.135  35.933  43.190  1.00  0.00     0.211 HD
ENDBRANCH   4  10
BRANCH   5  12
HETATM   12  O   UNL     1      43.252  35.217  41.060  1.00  0.00    -0.359 OA
HETATM   13  H   UNL     1      43.246  35.430  40.112  1.00  0.00     0.213 HD
ENDBRANCH   5  12
BRANCH   7  14
HETATM   14  C   UNL     1      45.222  39.446  41.439  1.00  0.00     0.170 C 
BRANCH  14  15
HETATM   15  O   UNL     1      44.850  40.824  41.467  1.00  0.00    -0.380 OA
HETATM   16  H   UNL     1      43.898  40.846  41.249  1.00  0.00     0.211 HD
ENDBRANCH  14  15
ENDBRANCH   7  14
ENDBRANCH   1   2
BRANCH   1  17
HETATM   17  C   UNL     1      44.988  40.279  44.891  1.00  0.00     0.266 C 
HETATM   18  O   UNL     1      45.374  39.252  45.797  1.00  0.00    -0.326 OA
HETATM   19  C   UNL     1      46.498  39.650  46.616  1.00  0.00     0.176 C 
HETATM   20  C   UNL     1      46.055  40.794  47.540  1.00  0.00     0.170 C 
HETATM   21  C   UNL     1      45.549  41.962  46.670  1.00  0.00     0.172 C 
HETATM   22  C   UNL     1      44.477  41.504  45.674  1.00  0.00     0.197 C 
BRANCH  19  23
HETATM   23  C   UNL     1      46.961  38.411  47.386  1.00  0.00     0.170 C 
BRANCH  23  24
HETATM   24  O   UNL     1      47.161  37.332  46.469  1.00  0.00    -0.380 OA
HETATM   25  H   UNL     1      46.751  37.593  45.619  1.00  0.00     0.211 HD
ENDBRANCH  23  24
ENDBRANCH  19  23
BRANCH  20  26
HETATM   26  O   UNL     1      45.037  40.326  48.436  1.00  0.00    -0.380 OA
HETATM   27  H   UNL     1      45.220  40.667  49.327  1.00  0.00     0.211 HD
ENDBRANCH  20  26
BRANCH  21  28
HETATM   28  O   UNL     1      45.035  43.024  47.477  1.00  0.00    -0.380 OA
HETATM   29  H   UNL     1      45.813  43.528  47.786  1.00  0.00     0.211 HD
ENDBRANCH  21  28
BRANCH  22  30
HETATM   30  O   UNL     1      44.168  42.594  44.792  1.00  0.00    -0.378 OA
HETATM   31  H   UNL     1      43.763  42.194  43.998  1.00  0.00     0.211 HD
ENDBRANCH  22  30
ENDBRANCH   1  17
TORSDOF 12
ENDMDL
MODEL 9
REMARK VINA RESULT:    -4.791      4.867      8.142
REMARK INTER + INTRA:          -8.497
REMARK INTER:                  -7.055
REMARK INTRA:                  -1.442
REMARK UNBOUND:                -1.466
REMARK  12 active torsions:
REMARK  status: ('A' for Active; 'I' for Inactive)
REMARK    1  A    between atoms: O_1  and  C_12 
REMARK    2  A    between atoms: O_1  and  C_14 
REMARK    3  A    between atoms: O_4  and  C_13 
REMARK    4  A    between atoms: O_5  and  C_16 
REMARK    5  A    between atoms: O_6  and  C_17 
REMARK    6  A    between atoms: O_7  and  C_18 
REMARK    7  A    between atoms: O_8  and  C_19 
REMARK    8  A    between atoms: O_9  and  C_21 
REMARK    9  A    between atoms: O_10  and  C_22 
REMARK   10  A    between atoms: O_11  and  C_23 
REMARK   11  A    between atoms: C_15  and  C_22 
REMARK   12  A    between atoms: C_20  and  C_23 
ROOT
HETATM    1  O   UNL     1      46.980  37.350  41.054  1.00  0.00    -0.326 OA
ENDROOT
BRANCH   1   2
HETATM    2  C   UNL     1      47.445  36.557  39.943  1.00  0.00     0.177 C 
HETATM    3  C   UNL     1      47.687  37.450  38.707  1.00  0.00     0.172 C 
HETATM    4  C   UNL     1      48.467  36.712  37.613  1.00  0.00     0.197 C 
HETATM    5  C   UNL     1      49.700  36.010  38.201  1.00  0.00     0.263 C 
HETATM    6  O   UNL     1      49.346  35.150  39.271  1.00  0.00    -0.327 OA
HETATM    7  C   UNL     1      48.762  35.881  40.362  1.00  0.00     0.177 C 
BRANCH   3   8
HETATM    8  O   UNL     1      46.425  37.879  38.162  1.00  0.00    -0.380 OA
HETATM    9  H   UNL     1      46.547  38.824  37.938  1.00  0.00     0.211 HD
ENDBRANCH   3   8
BRANCH   4  10
HETATM   10  O   UNL     1      48.892  37.636  36.596  1.00  0.00    -0.378 OA
HETATM   11  H   UNL     1      48.687  37.197  35.749  1.00  0.00     0.211 HD
ENDBRANCH   4  10
BRANCH   5  12
HETATM   12  O   UNL     1      50.290  35.219  37.177  1.00  0.00    -0.359 OA
HETATM   13  H   UNL     1      50.463  34.356  37.587  1.00  0.00     0.213 HD
ENDBRANCH   5  12
BRANCH   7  14
HETATM   14  C   UNL     1      48.533  34.882  41.502  1.00  0.00     0.170 C 
BRANCH  14  15
HETATM   15  O   UNL     1      47.215  34.342  41.407  1.00  0.00    -0.380 OA
HETATM   16  H   UNL     1      46.612  35.110  41.432  1.00  0.00     0.211 HD
ENDBRANCH  14  15
ENDBRANCH   7  14
ENDBRANCH   1   2
BRANCH   1  17
HETATM   17  C   UNL     1      45.587  37.181  41.347  1.00  0.00     0.266 C 
HETATM   18  O   UNL     1      44.997  36.327  40.373  1.00  0.00    -0.326 OA
HETATM   19  C   UNL     1      43.603  36.066  40.658  1.00  0.00     0.176 C 
HETATM   20  C   UNL     1      42.815  37.376  40.509  1.00  0.00     0.170 C 
HETATM   21  C   UNL     1      43.405  38.419  41.480  1.00  0.00     0.172 C 
HETATM   22  C   UNL     1      44.921  38.569  41.299  1.00  0.00     0.197 C 
BRANCH  19  23
HETATM   23  C   UNL     1      43.135  34.980  39.686  1.00  0.00     0.170 C 
BRANCH  23  24
HETATM   24  O   UNL     1      43.816  35.137  38.439  1.00  0.00    -0.380 OA
HETATM   25  H   UNL     1      44.168  36.051  38.412  1.00  0.00     0.211 HD
ENDBRANCH  23  24
ENDBRANCH  19  23
BRANCH  20  26
HETATM   26  O   UNL     1      42.880  37.829  39.150  1.00  0.00    -0.380 OA
HETATM   27  H   UNL     1      42.750  38.791  39.130  1.00  0.00     0.211 HD
ENDBRANCH  20  26
BRANCH  21  28
HETATM   28  O   UNL     1      42.772  39.691  41.322  1.00  0.00    -0.380 OA
HETATM   29  H   UNL     1      42.511  39.747  40.382  1.00  0.00     0.211 HD
ENDBRANCH  21  28
BRANCH  22  30
HETATM   30  O   UNL     1      45.428  39.426  42.333  1.00  0.00    -0.378 OA
HETATM   31  H   UNL     1      45.230  38.977  43.178  1.00  0.00     0.211 HD
ENDBRANCH  22  30
ENDBRANCH   1  17
TORSDOF 12
ENDMDL
MODEL 10
REMARK VINA RESULT:    -4.737      4.602      6.850
REMARK INTER + INTRA:          -8.418
REMARK INTER:                  -7.333
REMARK INTRA:                  -1.085
REMARK UNBOUND:                -1.466
REMARK  12 active torsions:
REMARK  status: ('A' for Active; 'I' for Inactive)
REMARK    1  A    between atoms: O_1  and  C_12 
REMARK    2  A    between atoms: O_1  and  C_14 
REMARK    3  A    between atoms: O_4  and  C_13 
REMARK    4  A    between atoms: O_5  and  C_16 
REMARK    5  A    between atoms: O_6  and  C_17 
REMARK    6  A    between atoms: O_7  and  C_18 
REMARK    7  A    between atoms: O_8  and  C_19 
REMARK    8  A    between atoms: O_9  and  C_21 
REMARK    9  A    between atoms: O_10  and  C_22 
REMARK   10  A    between atoms: O_11  and  C_23 
REMARK   11  A    between atoms: C_15  and  C_22 
REMARK   12  A    between atoms: C_20  and  C_23 
ROOT
HETATM    1  O   UNL     1      46.380  38.303  42.008  1.00  0.00    -0.326 OA
ENDROOT
BRANCH   1   2
HETATM    2  C   UNL     1      45.317  38.041  42.947  1.00  0.00     0.177 C 
HETATM    3  C   UNL     1      44.038  37.602  42.203  1.00  0.00     0.172 C 
HETATM    4  C   UNL     1      42.992  37.020  43.162  1.00  0.00     0.197 C 
HETATM    5  C   UNL     1      43.628  35.982  44.099  1.00  0.00     0.263 C 
HETATM    6  O   UNL     1      44.739  36.523  44.793  1.00  0.00    -0.327 OA
HETATM    7  C   UNL     1      45.784  36.916  43.887  1.00  0.00     0.177 C 
BRANCH   3   8
HETATM    8  O   UNL     1      43.460  38.731  41.523  1.00  0.00    -0.380 OA
HETATM    9  H   UNL     1      43.679  38.604  40.577  1.00  0.00     0.211 HD
ENDBRANCH   3   8
BRANCH   4  10
HETATM   10  O   UNL     1      41.931  36.395  42.419  1.00  0.00    -0.378 OA
HETATM   11  H   UNL     1      41.119  36.572  42.933  1.00  0.00     0.211 HD
ENDBRANCH   4  10
BRANCH   5  12
HETATM   12  O   UNL     1      42.653  35.597  45.060  1.00  0.00    -0.359 OA
HETATM   13  H   UNL     1      42.960  35.973  45.901  1.00  0.00     0.213 HD
ENDBRANCH   5  12
BRANCH   7  14
HETATM   14  C   UNL     1      46.974  37.367  44.742  1.00  0.00     0.170 C 
BRANCH  14  15
HETATM   15  O   UNL     1      46.714  37.079  46.115  1.00  0.00    -0.380 OA
HETATM   16  H   UNL     1      46.988  36.151  46.248  1.00  0.00     0.211 HD
ENDBRANCH  14  15
ENDBRANCH   7  14
ENDBRANCH   1   2
BRANCH   1  17
HETATM   17  C   UNL     1      46.523  37.296  40.997  1.00  0.00     0.266 C 
HETATM   18  O   UNL     1      47.655  36.484  41.291  1.00  0.00    -0.326 OA
HETATM   19  C   UNL     1      47.809  35.408  40.338  1.00  0.00     0.176 C 
HETATM   20  C   UNL     1      48.146  36.008  38.965  1.00  0.00     0.170 C 
HETATM   21  C   UNL     1      47.012  36.968  38.555  1.00  0.00     0.172 C 
HETATM   22  C   UNL     1      46.726  38.007  39.645  1.00  0.00     0.197 C 
BRANCH  19  23
HETATM   23  C   UNL     1      48.908  34.485  40.868  1.00  0.00     0.170 C 
BRANCH  23  24
HETATM   24  O   UNL     1      49.916  35.271  41.509  1.00  0.00    -0.380 OA
HETATM   25  H   UNL     1      49.983  34.960  42.435  1.00  0.00     0.211 HD
ENDBRANCH  23  24
ENDBRANCH  19  23
BRANCH  20  26
HETATM   26  O   UNL     1      49.409  36.684  39.030  1.00  0.00    -0.380 OA
HETATM   27  H   UNL     1      49.898  36.368  39.808  1.00  0.00     0.211 HD
ENDBRANCH  20  26
BRANCH  21  28
HETATM   28  O   UNL     1      47.313  37.630  37.324  1.00  0.00    -0.380 OA
HETATM   29  H   UNL     1      48.127  37.209  36.984  1.00  0.00     0.211 HD
ENDBRANCH  21  28
BRANCH  22  30
HETATM   30  O   UNL     1      45.561  38.760  39.273  1.00  0.00    -0.378 OA
HETATM   31  H   UNL     1      45.644  38.931  38.315  1.00  0.00     0.211 HD
ENDBRANCH  22  30
ENDBRANCH   1  17
TORSDOF 12
ENDMDL
