MODEL 1
REMARK VINA RESULT:    -6.071      0.000      0.000
REMARK INTER + INTRA:         -10.271
REMARK INTER:                  -8.910
REMARK INTRA:                  -1.362
REMARK UNBOUND:                -1.362
REMARK  12 active torsions:
REMARK  status: ('A' for Active; 'I' for Inactive)
REMARK    1  A    between atoms: O_1  and  C_12 
REMARK    2  A    between atoms: O_1  and  C_14 
REMARK    3  A    between atoms: O_4  and  C_13 
REMARK    4  A    between atoms: O_5  and  C_16 
REMARK    5  A    between atoms: O_6  and  C_17 
REMARK    6  A    between atoms: O_7  and  C_18 
REMARK    7  A    between atoms: O_8  and  C_19 
REMARK    8  A    between atoms: O_9  and  C_21 
REMARK    9  A    between atoms: O_10  and  C_22 
REMARK   10  A    between atoms: O_11  and  C_23 
REMARK   11  A    between atoms: C_15  and  C_22 
REMARK   12  A    between atoms: C_20  and  C_23 
ROOT
HETATM    1  O   UNL     1      44.149  40.993  45.361  1.00  0.00    -0.326 OA
ENDROOT
BRANCH   1   2
HETATM    2  C   UNL     1      44.621  42.305  44.989  1.00  0.00     0.177 C 
HETATM    3  C   UNL     1      43.713  42.914  43.899  1.00  0.00     0.172 C 
HETATM    4  C   UNL     1      43.986  44.409  43.699  1.00  0.00     0.197 C 
HETATM    5  C   UNL     1      44.021  45.143  45.048  1.00  0.00     0.263 C 
HETATM    6  O   UNL     1      44.951  44.549  45.937  1.00  0.00    -0.327 OA
HETATM    7  C   UNL     1      44.591  43.192  46.245  1.00  0.00     0.177 C 
BRANCH   3   8
HETATM    8  O   UNL     1      43.933  42.235  42.648  1.00  0.00    -0.380 OA
HETATM    9  H   UNL     1      44.160  42.939  42.007  1.00  0.00     0.211 HD
ENDBRANCH   3   8
BRANCH   4  10
HETATM   10  O   UNL     1      42.966  44.994  42.871  1.00  0.00    -0.378 OA
HETATM   11  H   UNL     1      43.420  45.247  42.044  1.00  0.00     0.211 HD
ENDBRANCH   4  10
BRANCH   5  12
HETATM   12  O   UNL     1      44.430  46.484  44.812  1.00  0.00    -0.359 OA
HETATM   13  H   UNL     1      45.305  46.415  44.396  1.00  0.00     0.213 HD
ENDBRANCH   5  12
BRANCH   7  14
HETATM   14  C   UNL     1      45.584  42.691  47.300  1.00  0.00     0.170 C 
BRANCH  14  15
HETATM   15  O   UNL     1      45.068  41.516  47.924  1.00  0.00    -0.380 OA
HETATM   16  H   UNL     1      44.133  41.712  48.125  1.00  0.00     0.211 HD
ENDBRANCH  14  15
ENDBRANCH   7  14
ENDBRANCH   1   2
BRANCH   1  17
HETATM   17  C   UNL     1      44.802  39.923  44.665  1.00  0.00     0.266 C 
HETATM   18  O   UNL     1      44.023  39.543  43.537  1.00  0.00    -0.326 OA
HETATM   19  C   UNL     1      44.668  38.509  42.759  1.00  0.00     0.176 C 
HETATM   20  C   UNL     1      44.730  37.225  43.599  1.00  0.00     0.170 C 
HETATM   21  C   UNL     1      45.506  37.522  44.897  1.00  0.00     0.172 C 
HETATM   22  C   UNL     1      44.929  38.734  45.638  1.00  0.00     0.197 C 
BRANCH  19  23
HETATM   23  C   UNL     1      43.859  38.337  41.471  1.00  0.00     0.170 C 
BRANCH  23  24
HETATM   24  O   UNL     1      43.017  39.477  41.286  1.00  0.00    -0.380 OA
HETATM   25  H   UNL     1      42.576  39.656  42.143  1.00  0.00     0.211 HD
ENDBRANCH  23  24
ENDBRANCH  19  23
BRANCH  20  26
HETATM   26  O   UNL     1      43.400  36.763  43.875  1.00  0.00    -0.380 OA
HETATM   27  H   UNL     1      43.438  36.088  44.573  1.00  0.00     0.211 HD
ENDBRANCH  20  26
BRANCH  21  28
HETATM   28  O   UNL     1      45.517  36.386  45.766  1.00  0.00    -0.380 OA
HETATM   29  H   UNL     1      46.458  36.155  45.893  1.00  0.00     0.211 HD
ENDBRANCH  21  28
BRANCH  22  30
HETATM   30  O   UNL     1      45.788  39.054  46.742  1.00  0.00    -0.378 OA
HETATM   31  H   UNL     1      46.475  38.360  46.761  1.00  0.00     0.211 HD
ENDBRANCH  22  30
ENDBRANCH   1  17
TORSDOF 12
ENDMDL
MODEL 2
REMARK VINA RESULT:    -5.446      1.516      6.136
REMARK INTER + INTRA:          -9.354
REMARK INTER:                  -7.760
REMARK INTRA:                  -1.594
REMARK UNBOUND:                -1.362
REMARK  12 active torsions:
REMARK  status: ('A' for Active; 'I' for Inactive)
REMARK    1  A    between atoms: O_1  and  C_12 
REMARK    2  A    between atoms: O_1  and  C_14 
REMARK    3  A    between atoms: O_4  and  C_13 
REMARK    4  A    between atoms: O_5  and  C_16 
REMARK    5  A    between atoms: O_6  and  C_17 
REMARK    6  A    between atoms: O_7  and  C_18 
REMARK    7  A    between atoms: O_8  and  C_19 
REMARK    8  A    between atoms: O_9  and  C_21 
REMARK    9  A    between atoms: O_10  and  C_22 
REMARK   10  A    between atoms: O_11  and  C_23 
REMARK   11  A    between atoms: C_15  and  C_22 
REMARK   12  A    between atoms: C_20  and  C_23 
ROOT
HETATM    1  O   UNL     1      45.962  39.075  44.091  1.00  0.00    -0.326 OA
ENDROOT
BRANCH   1   2
HETATM    2  C   UNL     1      45.207  38.008  43.482  1.00  0.00     0.177 C 
HETATM    3  C   UNL     1      44.427  37.221  44.557  1.00  0.00     0.172 C 
HETATM    4  C   UNL     1      43.380  36.289  43.934  1.00  0.00     0.197 C 
HETATM    5  C   UNL     1      42.539  37.035  42.888  1.00  0.00     0.263 C 
HETATM    6  O   UNL     1      43.357  37.644  41.904  1.00  0.00    -0.327 OA
HETATM    7  C   UNL     1      44.222  38.636  42.481  1.00  0.00     0.177 C 
BRANCH   3   8
HETATM    8  O   UNL     1      45.340  36.429  45.339  1.00  0.00    -0.380 OA
HETATM    9  H   UNL     1      45.181  36.691  46.269  1.00  0.00     0.211 HD
ENDBRANCH   3   8
BRANCH   4  10
HETATM   10  O   UNL     1      42.510  35.768  44.954  1.00  0.00    -0.378 OA
HETATM   11  H   UNL     1      41.615  35.789  44.563  1.00  0.00     0.211 HD
ENDBRANCH   4  10
BRANCH   5  12
HETATM   12  O   UNL     1      41.699  36.088  42.239  1.00  0.00    -0.359 OA
HETATM   13  H   UNL     1      41.137  36.609  41.643  1.00  0.00     0.213 HD
ENDBRANCH   5  12
BRANCH   7  14
HETATM   14  C   UNL     1      44.966  39.313  41.324  1.00  0.00     0.170 C 
BRANCH  14  15
HETATM   15  O   UNL     1      44.963  40.727  41.514  1.00  0.00    -0.380 OA
HETATM   16  H   UNL     1      45.149  41.113  40.637  1.00  0.00     0.211 HD
ENDBRANCH  14  15
ENDBRANCH   7  14
ENDBRANCH   1   2
BRANCH   1  17
HETATM   17  C   UNL     1      45.182  39.931  44.935  1.00  0.00     0.266 C 
HETATM   18  O   UNL     1      45.005  41.193  44.301  1.00  0.00    -0.326 OA
HETATM   19  C   UNL     1      44.167  42.076  45.081  1.00  0.00     0.176 C 
HETATM   20  C   UNL     1      44.899  42.430  46.384  1.00  0.00     0.170 C 
HETATM   21  C   UNL     1      45.209  41.126  47.146  1.00  0.00     0.172 C 
HETATM   22  C   UNL     1      45.946  40.113  46.261  1.00  0.00     0.197 C 
BRANCH  19  23
HETATM   23  C   UNL     1      43.869  43.303  44.216  1.00  0.00     0.170 C 
BRANCH  23  24
HETATM   24  O   UNL     1      44.845  43.393  43.174  1.00  0.00    -0.380 OA
HETATM   25  H   UNL     1      45.424  44.155  43.383  1.00  0.00     0.211 HD
ENDBRANCH  23  24
ENDBRANCH  19  23
BRANCH  20  26
HETATM   26  O   UNL     1      46.098  43.159  46.082  1.00  0.00    -0.380 OA
HETATM   27  H   UNL     1      46.072  44.013  46.544  1.00  0.00     0.211 HD
ENDBRANCH  20  26
BRANCH  21  28
HETATM   28  O   UNL     1      45.974  41.383  48.325  1.00  0.00    -0.380 OA
HETATM   29  H   UNL     1      46.632  40.663  48.382  1.00  0.00     0.211 HD
ENDBRANCH  21  28
BRANCH  22  30
HETATM   30  O   UNL     1      46.058  38.871  46.972  1.00  0.00    -0.378 OA
HETATM   31  H   UNL     1      46.200  39.108  47.910  1.00  0.00     0.211 HD
ENDBRANCH  22  30
ENDBRANCH   1  17
TORSDOF 12
ENDMDL
MODEL 3
REMARK VINA RESULT:    -5.421      1.443      5.964
REMARK INTER + INTRA:          -9.318
REMARK INTER:                  -7.823
REMARK INTRA:                  -1.495
REMARK UNBOUND:                -1.362
REMARK  12 active torsions:
REMARK  status: ('A' for Active; 'I' for Inactive)
REMARK    1  A    between atoms: O_1  and  C_12 
REMARK    2  A    between atoms: O_1  and  C_14 
REMARK    3  A    between atoms: O_4  and  C_13 
REMARK    4  A    between atoms: O_5  and  C_16 
REMARK    5  A    between atoms: O_6  and  C_17 
REMARK    6  A    between atoms: O_7  and  C_18 
REMARK    7  A    between atoms: O_8  and  C_19 
REMARK    8  A    between atoms: O_9  and  C_21 
REMARK    9  A    between atoms: O_10  and  C_22 
REMARK   10  A    between atoms: O_11  and  C_23 
REMARK   11  A    between atoms: C_15  and  C_22 
REMARK   12  A    between atoms: C_20  and  C_23 
ROOT
HETATM    1  O   UNL     1      45.578  39.643  44.322  1.00  0.00    -0.326 OA
ENDROOT
BRANCH   1   2
HETATM    2  C   UNL     1      44.590  38.770  43.737  1.00  0.00     0.177 C 
HETATM    3  C   UNL     1      44.412  39.089  42.237  1.00  0.00     0.172 C 
HETATM    4  C   UNL     1      43.615  37.997  41.513  1.00  0.00     0.197 C 
HETATM    5  C   UNL     1      44.162  36.604  41.855  1.00  0.00     0.263 C 
HETATM    6  O   UNL     1      44.199  36.391  43.255  1.00  0.00    -0.327 OA
HETATM    7  C   UNL     1      45.081  37.321  43.905  1.00  0.00     0.177 C 
BRANCH   3   8
HETATM    8  O   UNL     1      43.719  40.342  42.086  1.00  0.00    -0.380 OA
HETATM    9  H   UNL     1      42.974  40.155  41.479  1.00  0.00     0.211 HD
ENDBRANCH   3   8
BRANCH   4  10
HETATM   10  O   UNL     1      43.683  38.194  40.090  1.00  0.00    -0.378 OA
HETATM   11  H   UNL     1      43.258  37.406  39.701  1.00  0.00     0.211 HD
ENDBRANCH   4  10
BRANCH   5  12
HETATM   12  O   UNL     1      43.292  35.634  41.284  1.00  0.00    -0.359 OA
HETATM   13  H   UNL     1      43.526  34.795  41.714  1.00  0.00     0.213 HD
ENDBRANCH   5  12
BRANCH   7  14
HETATM   14  C   UNL     1      45.141  36.926  45.385  1.00  0.00     0.170 C 
BRANCH  14  15
HETATM   15  O   UNL     1      46.424  37.252  45.917  1.00  0.00    -0.380 OA
HETATM   16  H   UNL     1      46.383  38.201  46.144  1.00  0.00     0.211 HD
ENDBRANCH  14  15
ENDBRANCH   7  14
ENDBRANCH   1   2
BRANCH   1  17
HETATM   17  C   UNL     1      45.020  40.735  45.066  1.00  0.00     0.266 C 
HETATM   18  O   UNL     1      44.937  41.885  44.233  1.00  0.00    -0.326 OA
HETATM   19  C   UNL     1      44.318  43.001  44.913  1.00  0.00     0.176 C 
HETATM   20  C   UNL     1      45.238  43.454  46.057  1.00  0.00     0.170 C 
HETATM   21  C   UNL     1      45.461  42.263  47.011  1.00  0.00     0.172 C 
HETATM   22  C   UNL     1      45.951  41.019  46.260  1.00  0.00     0.197 C 
BRANCH  19  23
HETATM   23  C   UNL     1      44.086  44.097  43.871  1.00  0.00     0.170 C 
BRANCH  23  24
HETATM   24  O   UNL     1      45.085  44.001  42.853  1.00  0.00    -0.380 OA
HETATM   25  H   UNL     1      44.718  44.416  42.045  1.00  0.00     0.211 HD
ENDBRANCH  23  24
ENDBRANCH  19  23
BRANCH  20  26
HETATM   26  O   UNL     1      46.478  43.935  45.520  1.00  0.00    -0.380 OA
HETATM   27  H   UNL     1      46.314  44.325  44.645  1.00  0.00     0.211 HD
ENDBRANCH  20  26
BRANCH  21  28
HETATM   28  O   UNL     1      46.385  42.596  48.049  1.00  0.00    -0.380 OA
HETATM   29  H   UNL     1      46.303  43.561  48.183  1.00  0.00     0.211 HD
ENDBRANCH  21  28
BRANCH  22  30
HETATM   30  O   UNL     1      45.982  39.910  47.172  1.00  0.00    -0.378 OA
HETATM   31  H   UNL     1      45.958  39.105  46.620  1.00  0.00     0.211 HD
ENDBRANCH  22  30
ENDBRANCH   1  17
TORSDOF 12
ENDMDL
MODEL 4
REMARK VINA RESULT:    -5.214      5.318      8.217
REMARK INTER + INTRA:          -9.014
REMARK INTER:                  -7.644
REMARK INTRA:                  -1.370
REMARK UNBOUND:                -1.362
REMARK  12 active torsions:
REMARK  status: ('A' for Active; 'I' for Inactive)
REMARK    1  A    between atoms: O_1  and  C_12 
REMARK    2  A    between atoms: O_1  and  C_14 
REMARK    3  A    between atoms: O_4  and  C_13 
REMARK    4  A    between atoms: O_5  and  C_16 
REMARK    5  A    between atoms: O_6  and  C_17 
REMARK    6  A    between atoms: O_7  and  C_18 
REMARK    7  A    between atoms: O_8  and  C_19 
REMARK    8  A    between atoms: O_9  and  C_21 
REMARK    9  A    between atoms: O_10  and  C_22 
REMARK   10  A    between atoms: O_11  and  C_23 
REMARK   11  A    between atoms: C_15  and  C_22 
REMARK   12  A    between atoms: C_20  and  C_23 
ROOT
HETATM    1  O   UNL     1      41.694  35.668  40.357  1.00  0.00    -0.326 OA
ENDROOT
BRANCH   1   2
HETATM    2  C   UNL     1      43.036  36.119  40.632  1.00  0.00     0.177 C 
HETATM    3  C   UNL     1      43.632  36.820  39.392  1.00  0.00     0.172 C 
HETATM    4  C   UNL     1      44.919  37.582  39.731  1.00  0.00     0.197 C 
HETATM    5  C   UNL     1      44.725  38.452  40.982  1.00  0.00     0.263 C 
HETATM    6  O   UNL     1      44.259  37.686  42.079  1.00  0.00    -0.327 OA
HETATM    7  C   UNL     1      42.971  37.110  41.808  1.00  0.00     0.177 C 
BRANCH   3   8
HETATM    8  O   UNL     1      43.929  35.844  38.377  1.00  0.00    -0.380 OA
HETATM    9  H   UNL     1      44.620  36.253  37.817  1.00  0.00     0.211 HD
ENDBRANCH   3   8
BRANCH   4  10
HETATM   10  O   UNL     1      45.305  38.421  38.629  1.00  0.00    -0.378 OA
HETATM   11  H   UNL     1      44.612  38.291  37.952  1.00  0.00     0.211 HD
ENDBRANCH   4  10
BRANCH   5  12
HETATM   12  O   UNL     1      45.987  39.006  41.335  1.00  0.00    -0.359 OA
HETATM   13  H   UNL     1      46.262  38.528  42.133  1.00  0.00     0.213 HD
ENDBRANCH   5  12
BRANCH   7  14
HETATM   14  C   UNL     1      42.510  36.413  43.093  1.00  0.00     0.170 C 
BRANCH  14  15
HETATM   15  O   UNL     1      41.090  36.269  43.078  1.00  0.00    -0.380 OA
HETATM   16  H   UNL     1      40.892  35.681  42.323  1.00  0.00     0.211 HD
ENDBRANCH  14  15
ENDBRANCH   7  14
ENDBRANCH   1   2
BRANCH   1  17
HETATM   17  C   UNL     1      41.622  34.320  39.873  1.00  0.00     0.266 C 
HETATM   18  O   UNL     1      41.370  34.331  38.473  1.00  0.00    -0.326 OA
HETATM   19  C   UNL     1      41.354  32.996  37.917  1.00  0.00     0.176 C 
HETATM   20  C   UNL     1      40.149  32.236  38.492  1.00  0.00     0.170 C 
HETATM   21  C   UNL     1      40.272  32.207  40.028  1.00  0.00     0.172 C 
HETATM   22  C   UNL     1      40.468  33.614  40.608  1.00  0.00     0.197 C 
BRANCH  19  23
HETATM   23  C   UNL     1      41.294  33.137  36.394  1.00  0.00     0.170 C 
BRANCH  23  24
HETATM   24  O   UNL     1      40.591  32.020  35.844  1.00  0.00    -0.380 OA
HETATM   25  H   UNL     1      40.850  31.949  34.902  1.00  0.00     0.211 HD
ENDBRANCH  23  24
ENDBRANCH  19  23
BRANCH  20  26
HETATM   26  O   UNL     1      38.932  32.871  38.074  1.00  0.00    -0.380 OA
HETATM   27  H   UNL     1      39.136  33.521  37.382  1.00  0.00     0.211 HD
ENDBRANCH  20  26
BRANCH  21  28
HETATM   28  O   UNL     1      39.129  31.592  40.629  1.00  0.00    -0.380 OA
HETATM   29  H   UNL     1      39.460  31.127  41.422  1.00  0.00     0.211 HD
ENDBRANCH  21  28
BRANCH  22  30
HETATM   30  O   UNL     1      40.736  33.501  42.014  1.00  0.00    -0.378 OA
HETATM   31  H   UNL     1      40.396  32.627  42.286  1.00  0.00     0.211 HD
ENDBRANCH  22  30
ENDBRANCH   1  17
TORSDOF 12
ENDMDL
MODEL 5
REMARK VINA RESULT:    -5.136      1.956      4.887
REMARK INTER + INTRA:          -8.899
REMARK INTER:                  -7.391
REMARK INTRA:                  -1.508
REMARK UNBOUND:                -1.362
REMARK  12 active torsions:
REMARK  status: ('A' for Active; 'I' for Inactive)
REMARK    1  A    between atoms: O_1  and  C_12 
REMARK    2  A    between atoms: O_1  and  C_14 
REMARK    3  A    between atoms: O_4  and  C_13 
REMARK    4  A    between atoms: O_5  and  C_16 
REMARK    5  A    between atoms: O_6  and  C_17 
REMARK    6  A    between atoms: O_7  and  C_18 
REMARK    7  A    between atoms: O_8  and  C_19 
REMARK    8  A    between atoms: O_9  and  C_21 
REMARK    9  A    between atoms: O_10  and  C_22 
REMARK   10  A    between atoms: O_11  and  C_23 
REMARK   11  A    between atoms: C_15  and  C_22 
REMARK   12  A    between atoms: C_20  and  C_23 
ROOT
HETATM    1  O   UNL     1      44.800  39.303  43.543  1.00  0.00    -0.326 OA
ENDROOT
BRANCH   1   2
HETATM    2  C   UNL     1      44.696  39.561  44.959  1.00  0.00     0.177 C 
HETATM    3  C   UNL     1      45.673  38.659  45.743  1.00  0.00     0.172 C 
HETATM    4  C   UNL     1      45.821  39.112  47.200  1.00  0.00     0.197 C 
HETATM    5  C   UNL     1      46.074  40.624  47.280  1.00  0.00     0.263 C 
HETATM    6  O   UNL     1      45.067  41.354  46.599  1.00  0.00    -0.327 OA
HETATM    7  C   UNL     1      45.048  41.040  45.197  1.00  0.00     0.177 C 
BRANCH   3   8
HETATM    8  O   UNL     1      45.198  37.300  45.729  1.00  0.00    -0.380 OA
HETATM    9  H   UNL     1      45.936  36.772  45.362  1.00  0.00     0.211 HD
ENDBRANCH   3   8
BRANCH   4  10
HETATM   10  O   UNL     1      46.915  38.418  47.827  1.00  0.00    -0.378 OA
HETATM   11  H   UNL     1      47.274  37.829  47.136  1.00  0.00     0.211 HD
ENDBRANCH   4  10
BRANCH   5  12
HETATM   12  O   UNL     1      46.045  41.006  48.650  1.00  0.00    -0.359 OA
HETATM   13  H   UNL     1      45.230  40.619  49.007  1.00  0.00     0.213 HD
ENDBRANCH   5  12
BRANCH   7  14
HETATM   14  C   UNL     1      44.016  41.967  44.543  1.00  0.00     0.170 C 
BRANCH  14  15
HETATM   15  O   UNL     1      44.426  42.273  43.210  1.00  0.00    -0.380 OA
HETATM   16  H   UNL     1      45.160  42.912  43.299  1.00  0.00     0.211 HD
ENDBRANCH  14  15
ENDBRANCH   7  14
ENDBRANCH   1   2
BRANCH   1  17
HETATM   17  C   UNL     1      43.720  38.521  43.015  1.00  0.00     0.266 C 
HETATM   18  O   UNL     1      44.093  37.148  42.993  1.00  0.00    -0.326 OA
HETATM   19  C   UNL     1      43.015  36.303  42.530  1.00  0.00     0.176 C 
HETATM   20  C   UNL     1      42.737  36.621  41.053  1.00  0.00     0.170 C 
HETATM   21  C   UNL     1      42.377  38.115  40.930  1.00  0.00     0.172 C 
HETATM   22  C   UNL     1      43.439  39.010  41.581  1.00  0.00     0.197 C 
BRANCH  19  23
HETATM   23  C   UNL     1      43.446  34.852  42.753  1.00  0.00     0.170 C 
BRANCH  23  24
HETATM   24  O   UNL     1      44.828  34.713  42.414  1.00  0.00    -0.380 OA
HETATM   25  H   UNL     1      45.188  35.615  42.283  1.00  0.00     0.211 HD
ENDBRANCH  23  24
ENDBRANCH  19  23
BRANCH  20  26
HETATM   26  O   UNL     1      43.888  36.292  40.263  1.00  0.00    -0.380 OA
HETATM   27  H   UNL     1      44.360  37.110  40.034  1.00  0.00     0.211 HD
ENDBRANCH  20  26
BRANCH  21  28
HETATM   28  O   UNL     1      42.198  38.495  39.564  1.00  0.00    -0.380 OA
HETATM   29  H   UNL     1      41.833  37.709  39.112  1.00  0.00     0.211 HD
ENDBRANCH  21  28
BRANCH  22  30
HETATM   30  O   UNL     1      42.968  40.367  41.576  1.00  0.00    -0.378 OA
HETATM   31  H   UNL     1      43.735  40.919  41.331  1.00  0.00     0.211 HD
ENDBRANCH  22  30
ENDBRANCH   1  17
TORSDOF 12
ENDMDL
MODEL 6
REMARK VINA RESULT:    -5.078      4.833      8.102
REMARK INTER + INTRA:          -8.815
REMARK INTER:                  -7.419
REMARK INTRA:                  -1.396
REMARK UNBOUND:                -1.362
REMARK  12 active torsions:
REMARK  status: ('A' for Active; 'I' for Inactive)
REMARK    1  A    between atoms: O_1  and  C_12 
REMARK    2  A    between atoms: O_1  and  C_14 
REMARK    3  A    between atoms: O_4  and  C_13 
REMARK    4  A    between atoms: O_5  and  C_16 
REMARK    5  A    between atoms: O_6  and  C_17 
REMARK    6  A    between atoms: O_7  and  C_18 
REMARK    7  A    between atoms: O_8  and  C_19 
REMARK    8  A    between atoms: O_9  and  C_21 
REMARK    9  A    between atoms: O_10  and  C_22 
REMARK   10  A    between atoms: O_11  and  C_23 
REMARK   11  A    between atoms: C_15  and  C_22 
REMARK   12  A    between atoms: C_20  and  C_23 
ROOT
HETATM    1  O   UNL     1      47.152  37.576  41.032  1.00  0.00    -0.326 OA
ENDROOT
BRANCH   1   2
HETATM    2  C   UNL     1      47.577  36.731  39.944  1.00  0.00     0.177 C 
HETATM    3  C   UNL     1      47.754  37.562  38.655  1.00  0.00     0.172 C 
HETATM    4  C   UNL     1      48.495  36.776  37.567  1.00  0.00     0.197 C 
HETATM    5  C   UNL     1      49.761  36.117  38.134  1.00  0.00     0.263 C 
HETATM    6  O   UNL     1      49.464  35.310  39.261  1.00  0.00    -0.327 OA
HETATM    7  C   UNL     1      48.920  36.091  40.338  1.00  0.00     0.177 C 
BRANCH   3   8
HETATM    8  O   UNL     1      46.465  37.949  38.145  1.00  0.00    -0.380 OA
HETATM    9  H   UNL     1      45.976  38.302  38.916  1.00  0.00     0.211 HD
ENDBRANCH   3   8
BRANCH   4  10
HETATM   10  O   UNL     1      48.863  37.650  36.486  1.00  0.00    -0.378 OA
HETATM   11  H   UNL     1      49.803  37.457  36.308  1.00  0.00     0.211 HD
ENDBRANCH   4  10
BRANCH   5  12
HETATM   12  O   UNL     1      50.315  35.281  37.126  1.00  0.00    -0.359 OA
HETATM   13  H   UNL     1      50.786  35.881  36.526  1.00  0.00     0.213 HD
ENDBRANCH   5  12
BRANCH   7  14
HETATM   14  C   UNL     1      48.753  35.150  41.537  1.00  0.00     0.170 C 
BRANCH  14  15
HETATM   15  O   UNL     1      47.436  34.600  41.534  1.00  0.00    -0.380 OA
HETATM   16  H   UNL     1      47.521  33.710  41.141  1.00  0.00     0.211 HD
ENDBRANCH  14  15
ENDBRANCH   7  14
ENDBRANCH   1   2
BRANCH   1  17
HETATM   17  C   UNL     1      45.767  37.432  41.373  1.00  0.00     0.266 C 
HETATM   18  O   UNL     1      45.127  36.592  40.419  1.00  0.00    -0.326 OA
HETATM   19  C   UNL     1      43.739  36.357  40.751  1.00  0.00     0.176 C 
HETATM   20  C   UNL     1      42.972  37.683  40.632  1.00  0.00     0.170 C 
HETATM   21  C   UNL     1      43.614  38.712  41.583  1.00  0.00     0.172 C 
HETATM   22  C   UNL     1      45.126  38.833  41.351  1.00  0.00     0.197 C 
BRANCH  19  23
HETATM   23  C   UNL     1      43.218  35.283  39.794  1.00  0.00     0.170 C 
BRANCH  23  24
HETATM   24  O   UNL     1      43.862  35.427  38.526  1.00  0.00    -0.380 OA
HETATM   25  H   UNL     1      43.748  34.581  38.044  1.00  0.00     0.211 HD
ENDBRANCH  23  24
ENDBRANCH  19  23
BRANCH  20  26
HETATM   26  O   UNL     1      42.999  38.137  39.271  1.00  0.00    -0.380 OA
HETATM   27  H   UNL     1      43.845  38.586  39.104  1.00  0.00     0.211 HD
ENDBRANCH  20  26
BRANCH  21  28
HETATM   28  O   UNL     1      43.001  39.996  41.450  1.00  0.00    -0.380 OA
HETATM   29  H   UNL     1      43.728  40.624  41.273  1.00  0.00     0.211 HD
ENDBRANCH  21  28
BRANCH  22  30
HETATM   30  O   UNL     1      45.684  39.678  42.368  1.00  0.00    -0.378 OA
HETATM   31  H   UNL     1      46.432  39.180  42.753  1.00  0.00     0.211 HD
ENDBRANCH  22  30
ENDBRANCH   1  17
TORSDOF 12
ENDMDL
MODEL 7
REMARK VINA RESULT:    -5.045      4.573      6.819
REMARK INTER + INTRA:          -8.766
REMARK INTER:                  -7.209
REMARK INTRA:                  -1.557
REMARK UNBOUND:                -1.362
REMARK  12 active torsions:
REMARK  status: ('A' for Active; 'I' for Inactive)
REMARK    1  A    between atoms: O_1  and  C_12 
REMARK    2  A    between atoms: O_1  and  C_14 
REMARK    3  A    between atoms: O_4  and  C_13 
REMARK    4  A    between atoms: O_5  and  C_16 
REMARK    5  A    between atoms: O_6  and  C_17 
REMARK    6  A    between atoms: O_7  and  C_18 
REMARK    7  A    between atoms: O_8  and  C_19 
REMARK    8  A    between atoms: O_9  and  C_21 
REMARK    9  A    between atoms: O_10  and  C_22 
REMARK   10  A    between atoms: O_11  and  C_23 
REMARK   11  A    between atoms: C_15  and  C_22 
REMARK   12  A    between atoms: C_20  and  C_23 
ROOT
HETATM    1  O   UNL     1      46.348  38.344  42.120  1.00  0.00    -0.326 OA
ENDROOT
BRANCH   1   2
HETATM    2  C   UNL     1      45.274  38.136  43.060  1.00  0.00     0.177 C 
HETATM    3  C   UNL     1      44.012  37.627  42.330  1.00  0.00     0.172 C 
HETATM    4  C   UNL     1      42.959  37.101  43.312  1.00  0.00     0.197 C 
HETATM    5  C   UNL     1      43.592  36.142  44.331  1.00  0.00     0.263 C 
HETATM    6  O   UNL     1      44.685  36.747  45.001  1.00  0.00    -0.327 OA
HETATM    7  C   UNL     1      45.739  37.087  44.085  1.00  0.00     0.177 C 
BRANCH   3   8
HETATM    8  O   UNL     1      43.431  38.696  41.561  1.00  0.00    -0.380 OA
HETATM    9  H   UNL     1      44.036  39.457  41.676  1.00  0.00     0.211 HD
ENDBRANCH   3   8
BRANCH   4  10
HETATM   10  O   UNL     1      41.917  36.411  42.600  1.00  0.00    -0.378 OA
HETATM   11  H   UNL     1      41.230  37.084  42.434  1.00  0.00     0.211 HD
ENDBRANCH   4  10
BRANCH   5  12
HETATM   12  O   UNL     1      42.606  35.814  45.302  1.00  0.00    -0.359 OA
HETATM   13  H   UNL     1      42.445  34.863  45.192  1.00  0.00     0.213 HD
ENDBRANCH   5  12
BRANCH   7  14
HETATM   14  C   UNL     1      46.910  37.614  44.923  1.00  0.00     0.170 C 
BRANCH  14  15
HETATM   15  O   UNL     1      48.144  37.250  44.305  1.00  0.00    -0.380 OA
HETATM   16  H   UNL     1      48.563  38.090  44.036  1.00  0.00     0.211 HD
ENDBRANCH  14  15
ENDBRANCH   7  14
ENDBRANCH   1   2
BRANCH   1  17
HETATM   17  C   UNL     1      46.469  37.307  41.137  1.00  0.00     0.266 C 
HETATM   18  O   UNL     1      47.574  36.470  41.462  1.00  0.00    -0.326 OA
HETATM   19  C   UNL     1      47.703  35.364  40.539  1.00  0.00     0.176 C 
HETATM   20  C   UNL     1      48.070  35.918  39.154  1.00  0.00     0.170 C 
HETATM   21  C   UNL     1      46.968  36.900  38.708  1.00  0.00     0.172 C 
HETATM   22  C   UNL     1      46.704  37.975  39.769  1.00  0.00     0.197 C 
BRANCH  19  23
HETATM   23  C   UNL     1      48.771  34.424  41.103  1.00  0.00     0.170 C 
BRANCH  23  24
HETATM   24  O   UNL     1      49.809  35.197  41.710  1.00  0.00    -0.380 OA
HETATM   25  H   UNL     1      50.026  35.927  41.093  1.00  0.00     0.211 HD
ENDBRANCH  23  24
ENDBRANCH  19  23
BRANCH  20  26
HETATM   26  O   UNL     1      49.351  36.558  39.212  1.00  0.00    -0.380 OA
HETATM   27  H   UNL     1      50.023  35.901  39.459  1.00  0.00     0.211 HD
ENDBRANCH  20  26
BRANCH  21  28
HETATM   28  O   UNL     1      47.298  37.520  37.464  1.00  0.00    -0.380 OA
HETATM   29  H   UNL     1      47.580  36.797  36.869  1.00  0.00     0.211 HD
ENDBRANCH  21  28
BRANCH  22  30
HETATM   30  O   UNL     1      45.565  38.752  39.367  1.00  0.00    -0.378 OA
HETATM   31  H   UNL     1      45.822  39.200  38.538  1.00  0.00     0.211 HD
ENDBRANCH  22  30
ENDBRANCH   1  17
TORSDOF 12
ENDMDL
MODEL 8
REMARK VINA RESULT:    -4.943      3.793      6.675
REMARK INTER + INTRA:          -8.617
REMARK INTER:                  -7.123
REMARK INTRA:                  -1.494
REMARK UNBOUND:                -1.362
REMARK  12 active torsions:
REMARK  status: ('A' for Active; 'I' for Inactive)
REMARK    1  A    between atoms: O_1  and  C_12 
REMARK    2  A    between atoms: O_1  and  C_14 
REMARK    3  A    between atoms: O_4  and  C_13 
REMARK    4  A    between atoms: O_5  and  C_16 
REMARK    5  A    between atoms: O_6  and  C_17 
REMARK    6  A    between atoms: O_7  and  C_18 
REMARK    7  A    between atoms: O_8  and  C_19 
REMARK    8  A    between atoms: O_9  and  C_21 
REMARK    9  A    between atoms: O_10  and  C_22 
REMARK   10  A    between atoms: O_11  and  C_23 
REMARK   11  A    between atoms: C_15  and  C_22 
REMARK   12  A    between atoms: C_20  and  C_23 
ROOT
HETATM    1  O   UNL     1      46.047  38.276  41.518  1.00  0.00    -0.326 OA
ENDROOT
BRANCH   1   2
HETATM    2  C   UNL     1      45.387  37.933  42.754  1.00  0.00     0.177 C 
HETATM    3  C   UNL     1      46.315  38.215  43.955  1.00  0.00     0.172 C 
HETATM    4  C   UNL     1      45.556  38.163  45.286  1.00  0.00     0.197 C 
HETATM    5  C   UNL     1      44.264  38.991  45.211  1.00  0.00     0.263 C 
HETATM    6  O   UNL     1      43.452  38.585  44.123  1.00  0.00    -0.327 OA
HETATM    7  C   UNL     1      44.116  38.794  42.866  1.00  0.00     0.177 C 
BRANCH   3   8
HETATM    8  O   UNL     1      47.374  37.241  43.991  1.00  0.00    -0.380 OA
HETATM    9  H   UNL     1      48.158  37.695  43.621  1.00  0.00     0.211 HD
ENDBRANCH   3   8
BRANCH   4  10
HETATM   10  O   UNL     1      46.381  38.673  46.349  1.00  0.00    -0.378 OA
HETATM   11  H   UNL     1      47.230  38.200  46.264  1.00  0.00     0.211 HD
ENDBRANCH   4  10
BRANCH   5  12
HETATM   12  O   UNL     1      43.532  38.777  46.412  1.00  0.00    -0.359 OA
HETATM   13  H   UNL     1      42.892  38.078  46.200  1.00  0.00     0.213 HD
ENDBRANCH   5  12
BRANCH   7  14
HETATM   14  C   UNL     1      43.112  38.442  41.762  1.00  0.00     0.170 C 
BRANCH  14  15
HETATM   15  O   UNL     1      43.296  39.317  40.650  1.00  0.00    -0.380 OA
HETATM   16  H   UNL     1      43.700  40.128  41.015  1.00  0.00     0.211 HD
ENDBRANCH  14  15
ENDBRANCH   7  14
ENDBRANCH   1   2
BRANCH   1  17
HETATM   17  C   UNL     1      46.316  37.150  40.672  1.00  0.00     0.266 C 
HETATM   18  O   UNL     1      47.440  36.435  41.174  1.00  0.00    -0.326 OA
HETATM   19  C   UNL     1      47.716  35.248  40.395  1.00  0.00     0.176 C 
HETATM   20  C   UNL     1      48.162  35.673  38.988  1.00  0.00     0.170 C 
HETATM   21  C   UNL     1      47.042  36.519  38.350  1.00  0.00     0.172 C 
HETATM   22  C   UNL     1      46.622  37.682  39.259  1.00  0.00     0.197 C 
BRANCH  19  23
HETATM   23  C   UNL     1      48.790  34.453  41.142  1.00  0.00     0.170 C 
BRANCH  23  24
HETATM   24  O   UNL     1      49.729  35.360  41.725  1.00  0.00    -0.380 OA
HETATM   25  H   UNL     1      49.362  36.263  41.625  1.00  0.00     0.211 HD
ENDBRANCH  23  24
ENDBRANCH  19  23
BRANCH  20  26
HETATM   26  O   UNL     1      49.392  36.407  39.071  1.00  0.00    -0.380 OA
HETATM   27  H   UNL     1      50.123  35.832  38.792  1.00  0.00     0.211 HD
ENDBRANCH  20  26
BRANCH  21  28
HETATM   28  O   UNL     1      47.436  37.024  37.072  1.00  0.00    -0.380 OA
HETATM   29  H   UNL     1      47.015  37.901  36.987  1.00  0.00     0.211 HD
ENDBRANCH  21  28
BRANCH  22  30
HETATM   30  O   UNL     1      45.475  38.327  38.685  1.00  0.00    -0.378 OA
HETATM   31  H   UNL     1      45.753  38.639  37.802  1.00  0.00     0.211 HD
ENDBRANCH  22  30
ENDBRANCH   1  17
TORSDOF 12
ENDMDL
MODEL 9
REMARK VINA RESULT:    -4.939      2.237      6.789
REMARK INTER + INTRA:          -8.610
REMARK INTER:                  -7.181
REMARK INTRA:                  -1.429
REMARK UNBOUND:                -1.362
REMARK  12 active torsions:
REMARK  status: ('A' for Active; 'I' for Inactive)
REMARK    1  A    between atoms: O_1  and  C_12 
REMARK    2  A    between atoms: O_1  and  C_14 
REMARK    3  A    between atoms: O_4  and  C_13 
REMARK    4  A    between atoms: O_5  and  C_16 
REMARK    5  A    between atoms: O_6  and  C_17 
REMARK    6  A    between atoms: O_7  and  C_18 
REMARK    7  A    between atoms: O_8  and  C_19 
REMARK    8  A    between atoms: O_9  and  C_21 
REMARK    9  A    between atoms: O_10  and  C_22 
REMARK   10  A    between atoms: O_11  and  C_23 
REMARK   11  A    between atoms: C_15  and  C_22 
REMARK   12  A    between atoms: C_20  and  C_23 
ROOT
HETATM    1  O   UNL     1      44.593  39.263  44.044  1.00  0.00    -0.326 OA
ENDROOT
BRANCH   1   2
HETATM    2  C   UNL     1      44.476  37.866  44.381  1.00  0.00     0.177 C 
HETATM    3  C   UNL     1      43.012  37.515  44.722  1.00  0.00     0.172 C 
HETATM    4  C   UNL     1      42.786  36.000  44.780  1.00  0.00     0.197 C 
HETATM    5  C   UNL     1      43.383  35.311  43.544  1.00  0.00     0.263 C 
HETATM    6  O   UNL     1      44.752  35.637  43.380  1.00  0.00    -0.327 OA
HETATM    7  C   UNL     1      44.935  37.045  43.162  1.00  0.00     0.177 C 
BRANCH   3   8
HETATM    8  O   UNL     1      42.662  38.082  45.999  1.00  0.00    -0.380 OA
HETATM    9  H   UNL     1      43.461  38.561  46.298  1.00  0.00     0.211 HD
ENDBRANCH   3   8
BRANCH   4  10
HETATM   10  O   UNL     1      41.380  35.709  44.848  1.00  0.00    -0.378 OA
HETATM   11  H   UNL     1      41.115  35.502  43.931  1.00  0.00     0.211 HD
ENDBRANCH   4  10
BRANCH   5  12
HETATM   12  O   UNL     1      43.283  33.905  43.730  1.00  0.00    -0.359 OA
HETATM   13  H   UNL     1      42.541  33.780  44.343  1.00  0.00     0.213 HD
ENDBRANCH   5  12
BRANCH   7  14
HETATM   14  C   UNL     1      46.426  37.267  42.877  1.00  0.00     0.170 C 
BRANCH  14  15
HETATM   15  O   UNL     1      47.132  37.418  44.108  1.00  0.00    -0.380 OA
HETATM   16  H   UNL     1      47.798  36.704  44.121  1.00  0.00     0.211 HD
ENDBRANCH  14  15
ENDBRANCH   7  14
ENDBRANCH   1   2
BRANCH   1  17
HETATM   17  C   UNL     1      45.269  40.045  45.038  1.00  0.00     0.266 C 
HETATM   18  O   UNL     1      45.617  39.216  46.141  1.00  0.00    -0.326 OA
HETATM   19  C   UNL     1      46.362  39.940  47.146  1.00  0.00     0.176 C 
HETATM   20  C   UNL     1      45.445  41.000  47.773  1.00  0.00     0.170 C 
HETATM   21  C   UNL     1      44.943  41.939  46.657  1.00  0.00     0.172 C 
HETATM   22  C   UNL     1      44.307  41.156  45.501  1.00  0.00     0.197 C 
BRANCH  19  23
HETATM   23  C   UNL     1      46.865  38.915  48.166  1.00  0.00     0.170 C 
BRANCH  23  24
HETATM   24  O   UNL     1      46.823  39.491  49.474  1.00  0.00    -0.380 OA
HETATM   25  H   UNL     1      47.142  40.414  49.396  1.00  0.00     0.211 HD
ENDBRANCH  23  24
ENDBRANCH  19  23
BRANCH  20  26
HETATM   26  O   UNL     1      44.355  40.359  48.449  1.00  0.00    -0.380 OA
HETATM   27  H   UNL     1      44.294  39.437  48.149  1.00  0.00     0.211 HD
ENDBRANCH  20  26
BRANCH  21  28
HETATM   28  O   UNL     1      44.009  42.895  47.164  1.00  0.00    -0.380 OA
HETATM   29  H   UNL     1      43.969  42.746  48.129  1.00  0.00     0.211 HD
ENDBRANCH  21  28
BRANCH  22  30
HETATM   30  O   UNL     1      44.011  42.068  44.432  1.00  0.00    -0.378 OA
HETATM   31  H   UNL     1      44.407  41.680  43.628  1.00  0.00     0.211 HD
ENDBRANCH  22  30
ENDBRANCH   1  17
TORSDOF 12
ENDMDL
MODEL 10
REMARK VINA RESULT:    -4.657      1.897      2.966
REMARK INTER + INTRA:          -8.197
REMARK INTER:                  -6.830
REMARK INTRA:                  -1.367
REMARK UNBOUND:                -1.362
REMARK  12 active torsions:
REMARK  status: ('A' for Active; 'I' for Inactive)
REMARK    1  A    between atoms: O_1  and  C_12 
REMARK    2  A    between atoms: O_1  and  C_14 
REMARK    3  A    between atoms: O_4  and  C_13 
REMARK    4  A    between atoms: O_5  and  C_16 
REMARK    5  A    between atoms: O_6  and  C_17 
REMARK    6  A    between atoms: O_7  and  C_18 
REMARK    7  A    between atoms: O_8  and  C_19 
REMARK    8  A    between atoms: O_9  and  C_21 
REMARK    9  A    between atoms: O_10  and  C_22 
REMARK   10  A    between atoms: O_11  and  C_23 
REMARK   11  A    between atoms: C_15  and  C_22 
REMARK   12  A    between atoms: C_20  and  C_23 
ROOT
HETATM    1  O   UNL     1      44.767  38.955  44.142  1.00  0.00    -0.326 OA
ENDROOT
BRANCH   1   2
HETATM    2  C   UNL     1      45.170  40.276  44.557  1.00  0.00     0.177 C 
HETATM    3  C   UNL     1      44.018  41.281  44.345  1.00  0.00     0.172 C 
HETATM    4  C   UNL     1      44.287  42.615  45.051  1.00  0.00     0.197 C 
HETATM    5  C   UNL     1      44.735  42.384  46.502  1.00  0.00     0.263 C 
HETATM    6  O   UNL     1      45.852  41.516  46.567  1.00  0.00    -0.327 OA
HETATM    7  C   UNL     1      45.536  40.213  46.050  1.00  0.00     0.177 C 
BRANCH   3   8
HETATM    8  O   UNL     1      43.844  41.532  42.938  1.00  0.00    -0.380 OA
HETATM    9  H   UNL     1      42.885  41.423  42.771  1.00  0.00     0.211 HD
ENDBRANCH   3   8
BRANCH   4  10
HETATM   10  O   UNL     1      43.100  43.427  45.048  1.00  0.00    -0.378 OA
HETATM   11  H   UNL     1      43.287  44.152  44.421  1.00  0.00     0.211 HD
ENDBRANCH   4  10
BRANCH   5  12
HETATM   12  O   UNL     1      45.118  43.639  47.051  1.00  0.00    -0.359 OA
HETATM   13  H   UNL     1      45.402  43.445  47.959  1.00  0.00     0.213 HD
ENDBRANCH   5  12
BRANCH   7  14
HETATM   14  C   UNL     1      46.766  39.326  46.281  1.00  0.00     0.170 C 
BRANCH  14  15
HETATM   15  O   UNL     1      46.369  37.956  46.316  1.00  0.00    -0.380 OA
HETATM   16  H   UNL     1      46.715  37.601  47.158  1.00  0.00     0.211 HD
ENDBRANCH  14  15
ENDBRANCH   7  14
ENDBRANCH   1   2
BRANCH   1  17
HETATM   17  C   UNL     1      45.123  38.636  42.791  1.00  0.00     0.266 C 
HETATM   18  O   UNL     1      43.949  38.579  41.990  1.00  0.00    -0.326 OA
HETATM   19  C   UNL     1      44.255  38.326  40.599  1.00  0.00     0.176 C 
HETATM   20  C   UNL     1      44.843  36.913  40.472  1.00  0.00     0.170 C 
HETATM   21  C   UNL     1      46.104  36.822  41.355  1.00  0.00     0.172 C 
HETATM   22  C   UNL     1      45.820  37.261  42.796  1.00  0.00     0.197 C 
BRANCH  19  23
HETATM   23  C   UNL     1      42.958  38.502  39.807  1.00  0.00     0.170 C 
BRANCH  23  24
HETATM   24  O   UNL     1      41.842  38.337  40.687  1.00  0.00    -0.380 OA
HETATM   25  H   UNL     1      41.043  38.627  40.200  1.00  0.00     0.211 HD
ENDBRANCH  23  24
ENDBRANCH  19  23
BRANCH  20  26
HETATM   26  O   UNL     1      43.859  35.943  40.861  1.00  0.00    -0.380 OA
HETATM   27  H   UNL     1      43.673  36.044  41.809  1.00  0.00     0.211 HD
ENDBRANCH  20  26
BRANCH  21  28
HETATM   28  O   UNL     1      46.645  35.499  41.351  1.00  0.00    -0.380 OA
HETATM   29  H   UNL     1      46.113  34.992  40.707  1.00  0.00     0.211 HD
ENDBRANCH  21  28
BRANCH  22  30
HETATM   30  O   UNL     1      47.060  37.309  43.518  1.00  0.00    -0.378 OA
HETATM   31  H   UNL     1      47.448  38.186  43.334  1.00  0.00     0.211 HD
ENDBRANCH  22  30
ENDBRANCH   1  17
TORSDOF 12
ENDMDL
