MODEL 1
REMARK VINA RESULT:    -6.086      0.000      0.000
REMARK INTER + INTRA:         -10.270
REMARK INTER:                  -8.932
REMARK INTRA:                  -1.338
REMARK UNBOUND:                -1.338
REMARK  12 active torsions:
REMARK  status: ('A' for Active; 'I' for Inactive)
REMARK    1  A    between atoms: O_1  and  C_12 
REMARK    2  A    between atoms: O_1  and  C_14 
REMARK    3  A    between atoms: O_4  and  C_13 
REMARK    4  A    between atoms: O_5  and  C_16 
REMARK    5  A    between atoms: O_6  and  C_17 
REMARK    6  A    between atoms: O_7  and  C_18 
REMARK    7  A    between atoms: O_8  and  C_19 
REMARK    8  A    between atoms: O_9  and  C_21 
REMARK    9  A    between atoms: O_10  and  C_22 
REMARK   10  A    between atoms: O_11  and  C_23 
REMARK   11  A    between atoms: C_15  and  C_22 
REMARK   12  A    between atoms: C_20  and  C_23 
ROOT
HETATM    1  O   UNL     1      44.174  41.105  45.272  1.00  0.00    -0.326 OA
ENDROOT
BRANCH   1   2
HETATM    2  C   UNL     1      44.647  42.397  44.840  1.00  0.00     0.177 C 
HETATM    3  C   UNL     1      43.698  42.989  43.776  1.00  0.00     0.172 C 
HETATM    4  C   UNL     1      43.983  44.474  43.521  1.00  0.00     0.197 C 
HETATM    5  C   UNL     1      44.093  45.245  44.844  1.00  0.00     0.263 C 
HETATM    6  O   UNL     1      45.055  44.662  45.705  1.00  0.00    -0.327 OA
HETATM    7  C   UNL     1      44.690  43.321  46.070  1.00  0.00     0.177 C 
BRANCH   3   8
HETATM    8  O   UNL     1      43.847  42.272  42.537  1.00  0.00    -0.380 OA
HETATM    9  H   UNL     1      44.172  41.383  42.789  1.00  0.00     0.211 HD
ENDBRANCH   3   8
BRANCH   4  10
HETATM   10  O   UNL     1      42.934  45.052  42.725  1.00  0.00    -0.378 OA
HETATM   11  H   UNL     1      43.301  45.117  41.823  1.00  0.00     0.211 HD
ENDBRANCH   4  10
BRANCH   5  12
HETATM   12  O   UNL     1      44.511  46.572  44.550  1.00  0.00    -0.359 OA
HETATM   13  H   UNL     1      44.041  46.814  43.735  1.00  0.00     0.213 HD
ENDBRANCH   5  12
BRANCH   7  14
HETATM   14  C   UNL     1      45.725  42.834  47.091  1.00  0.00     0.170 C 
BRANCH  14  15
HETATM   15  O   UNL     1      46.761  42.118  46.418  1.00  0.00    -0.380 OA
HETATM   16  H   UNL     1      46.308  41.434  45.888  1.00  0.00     0.211 HD
ENDBRANCH  14  15
ENDBRANCH   7  14
ENDBRANCH   1   2
BRANCH   1  17
HETATM   17  C   UNL     1      44.760  40.005  44.563  1.00  0.00     0.266 C 
HETATM   18  O   UNL     1      43.868  39.565  43.545  1.00  0.00    -0.326 OA
HETATM   19  C   UNL     1      44.438  38.497  42.753  1.00  0.00     0.176 C 
HETATM   20  C   UNL     1      44.605  37.257  43.643  1.00  0.00     0.170 C 
HETATM   21  C   UNL     1      45.514  37.623  44.834  1.00  0.00     0.172 C 
HETATM   22  C   UNL     1      45.005  38.867  45.573  1.00  0.00     0.197 C 
BRANCH  19  23
HETATM   23  C   UNL     1      43.497  38.256  41.571  1.00  0.00     0.170 C 
BRANCH  23  24
HETATM   24  O   UNL     1      42.805  39.468  41.263  1.00  0.00    -0.380 OA
HETATM   25  H   UNL     1      43.445  40.066  40.824  1.00  0.00     0.211 HD
ENDBRANCH  23  24
ENDBRANCH  19  23
BRANCH  20  26
HETATM   26  O   UNL     1      43.319  36.801  44.085  1.00  0.00    -0.380 OA
HETATM   27  H   UNL     1      42.633  37.379  43.712  1.00  0.00     0.211 HD
ENDBRANCH  20  26
BRANCH  21  28
HETATM   28  O   UNL     1      45.632  36.532  45.751  1.00  0.00    -0.380 OA
HETATM   29  H   UNL     1      46.523  36.609  46.146  1.00  0.00     0.211 HD
ENDBRANCH  21  28
BRANCH  22  30
HETATM   30  O   UNL     1      45.976  39.248  46.561  1.00  0.00    -0.378 OA
HETATM   31  H   UNL     1      45.551  39.100  47.428  1.00  0.00     0.211 HD
ENDBRANCH  22  30
ENDBRANCH   1  17
TORSDOF 12
ENDMDL
MODEL 2
REMARK VINA RESULT:    -5.460      1.552      6.100
REMARK INTER + INTRA:          -9.352
REMARK INTER:                  -7.758
REMARK INTRA:                  -1.594
REMARK UNBOUND:                -1.338
REMARK  12 active torsions:
REMARK  status: ('A' for Active; 'I' for Inactive)
REMARK    1  A    between atoms: O_1  and  C_12 
REMARK    2  A    between atoms: O_1  and  C_14 
REMARK    3  A    between atoms: O_4  and  C_13 
REMARK    4  A    between atoms: O_5  and  C_16 
REMARK    5  A    between atoms: O_6  and  C_17 
REMARK    6  A    between atoms: O_7  and  C_18 
REMARK    7  A    between atoms: O_8  and  C_19 
REMARK    8  A    between atoms: O_9  and  C_21 
REMARK    9  A    between atoms: O_10  and  C_22 
REMARK   10  A    between atoms: O_11  and  C_23 
REMARK   11  A    between atoms: C_15  and  C_22 
REMARK   12  A    between atoms: C_20  and  C_23 
ROOT
HETATM    1  O   UNL     1      45.957  39.042  44.104  1.00  0.00    -0.326 OA
ENDROOT
BRANCH   1   2
HETATM    2  C   UNL     1      45.178  37.993  43.494  1.00  0.00     0.177 C 
HETATM    3  C   UNL     1      44.386  37.217  44.569  1.00  0.00     0.172 C 
HETATM    4  C   UNL     1      43.318  36.310  43.947  1.00  0.00     0.197 C 
HETATM    5  C   UNL     1      42.488  37.076  42.907  1.00  0.00     0.263 C 
HETATM    6  O   UNL     1      43.314  37.673  41.923  1.00  0.00    -0.327 OA
HETATM    7  C   UNL     1      44.201  38.645  42.500  1.00  0.00     0.177 C 
BRANCH   3   8
HETATM    8  O   UNL     1      45.287  36.405  45.344  1.00  0.00    -0.380 OA
HETATM    9  H   UNL     1      46.099  36.329  44.804  1.00  0.00     0.211 HD
ENDBRANCH   3   8
BRANCH   4  10
HETATM   10  O   UNL     1      42.442  35.802  44.968  1.00  0.00    -0.378 OA
HETATM   11  H   UNL     1      41.539  35.931  44.620  1.00  0.00     0.211 HD
ENDBRANCH   4  10
BRANCH   5  12
HETATM   12  O   UNL     1      41.627  36.149  42.258  1.00  0.00    -0.359 OA
HETATM   13  H   UNL     1      42.035  35.984  41.392  1.00  0.00     0.213 HD
ENDBRANCH   5  12
BRANCH   7  14
HETATM   14  C   UNL     1      44.954  39.311  41.342  1.00  0.00     0.170 C 
BRANCH  14  15
HETATM   15  O   UNL     1      44.979  40.725  41.537  1.00  0.00    -0.380 OA
HETATM   16  H   UNL     1      45.831  41.028  41.169  1.00  0.00     0.211 HD
ENDBRANCH  14  15
ENDBRANCH   7  14
ENDBRANCH   1   2
BRANCH   1  17
HETATM   17  C   UNL     1      45.198  39.908  44.958  1.00  0.00     0.266 C 
HETATM   18  O   UNL     1      45.039  41.175  44.331  1.00  0.00    -0.326 OA
HETATM   19  C   UNL     1      44.222  42.070  45.121  1.00  0.00     0.176 C 
HETATM   20  C   UNL     1      44.971  42.405  46.419  1.00  0.00     0.170 C 
HETATM   21  C   UNL     1      45.263  41.092  47.173  1.00  0.00     0.172 C 
HETATM   22  C   UNL     1      45.976  40.071  46.278  1.00  0.00     0.197 C 
BRANCH  19  23
HETATM   23  C   UNL     1      43.940  43.306  44.264  1.00  0.00     0.170 C 
BRANCH  23  24
HETATM   24  O   UNL     1      44.927  43.401  43.234  1.00  0.00    -0.380 OA
HETATM   25  H   UNL     1      45.539  42.645  43.346  1.00  0.00     0.211 HD
ENDBRANCH  23  24
ENDBRANCH  19  23
BRANCH  20  26
HETATM   26  O   UNL     1      46.179  43.114  46.112  1.00  0.00    -0.380 OA
HETATM   27  H   UNL     1      46.035  43.657  45.319  1.00  0.00     0.211 HD
ENDBRANCH  20  26
BRANCH  21  28
HETATM   28  O   UNL     1      46.042  41.331  48.348  1.00  0.00    -0.380 OA
HETATM   29  H   UNL     1      46.878  40.841  48.221  1.00  0.00     0.211 HD
ENDBRANCH  21  28
BRANCH  22  30
HETATM   30  O   UNL     1      46.072  38.824  46.984  1.00  0.00    -0.378 OA
HETATM   31  H   UNL     1      45.654  38.154  46.408  1.00  0.00     0.211 HD
ENDBRANCH  22  30
ENDBRANCH   1  17
TORSDOF 12
ENDMDL
MODEL 3
REMARK VINA RESULT:    -5.410      2.382      3.608
REMARK INTER + INTRA:          -9.278
REMARK INTER:                  -7.737
REMARK INTRA:                  -1.541
REMARK UNBOUND:                -1.338
REMARK  12 active torsions:
REMARK  status: ('A' for Active; 'I' for Inactive)
REMARK    1  A    between atoms: O_1  and  C_12 
REMARK    2  A    between atoms: O_1  and  C_14 
REMARK    3  A    between atoms: O_4  and  C_13 
REMARK    4  A    between atoms: O_5  and  C_16 
REMARK    5  A    between atoms: O_6  and  C_17 
REMARK    6  A    between atoms: O_7  and  C_18 
REMARK    7  A    between atoms: O_8  and  C_19 
REMARK    8  A    between atoms: O_9  and  C_21 
REMARK    9  A    between atoms: O_10  and  C_22 
REMARK   10  A    between atoms: O_11  and  C_23 
REMARK   11  A    between atoms: C_15  and  C_22 
REMARK   12  A    between atoms: C_20  and  C_23 
ROOT
HETATM    1  O   UNL     1      45.188  38.274  46.346  1.00  0.00    -0.326 OA
ENDROOT
BRANCH   1   2
HETATM    2  C   UNL     1      44.967  39.552  46.978  1.00  0.00     0.177 C 
HETATM    3  C   UNL     1      46.012  40.580  46.493  1.00  0.00     0.172 C 
HETATM    4  C   UNL     1      45.633  42.011  46.892  1.00  0.00     0.197 C 
HETATM    5  C   UNL     1      44.168  42.306  46.538  1.00  0.00     0.263 C 
HETATM    6  O   UNL     1      43.294  41.348  47.109  1.00  0.00    -0.327 OA
HETATM    7  C   UNL     1      43.555  40.030  46.600  1.00  0.00     0.177 C 
BRANCH   3   8
HETATM    8  O   UNL     1      47.299  40.270  47.060  1.00  0.00    -0.380 OA
HETATM    9  H   UNL     1      47.832  39.920  46.318  1.00  0.00     0.211 HD
ENDBRANCH   3   8
BRANCH   4  10
HETATM   10  O   UNL     1      46.481  42.956  46.217  1.00  0.00    -0.378 OA
HETATM   11  H   UNL     1      46.682  42.548  45.353  1.00  0.00     0.211 HD
ENDBRANCH   4  10
BRANCH   5  12
HETATM   12  O   UNL     1      43.833  43.582  47.070  1.00  0.00    -0.359 OA
HETATM   13  H   UNL     1      43.739  44.164  46.299  1.00  0.00     0.213 HD
ENDBRANCH   5  12
BRANCH   7  14
HETATM   14  C   UNL     1      42.482  39.102  47.184  1.00  0.00     0.170 C 
BRANCH  14  15
HETATM   15  O   UNL     1      42.175  38.073  46.242  1.00  0.00    -0.380 OA
HETATM   16  H   UNL     1      41.703  38.516  45.511  1.00  0.00     0.211 HD
ENDBRANCH  14  15
ENDBRANCH   7  14
ENDBRANCH   1   2
BRANCH   1  17
HETATM   17  C   UNL     1      45.488  38.363  44.947  1.00  0.00     0.266 C 
HETATM   18  O   UNL     1      44.364  37.928  44.191  1.00  0.00    -0.326 OA
HETATM   19  C   UNL     1      44.587  38.059  42.768  1.00  0.00     0.176 C 
HETATM   20  C   UNL     1      45.698  37.084  42.350  1.00  0.00     0.170 C 
HETATM   21  C   UNL     1      46.971  37.414  43.155  1.00  0.00     0.172 C 
HETATM   22  C   UNL     1      46.696  37.449  44.663  1.00  0.00     0.197 C 
BRANCH  19  23
HETATM   23  C   UNL     1      43.255  37.774  42.070  1.00  0.00     0.170 C 
BRANCH  23  24
HETATM   24  O   UNL     1      43.509  37.300  40.745  1.00  0.00    -0.380 OA
HETATM   25  H   UNL     1      42.765  36.711  40.499  1.00  0.00     0.211 HD
ENDBRANCH  23  24
ENDBRANCH  19  23
BRANCH  20  26
HETATM   26  O   UNL     1      45.268  35.735  42.577  1.00  0.00    -0.380 OA
HETATM   27  H   UNL     1      46.047  35.179  42.747  1.00  0.00     0.211 HD
ENDBRANCH  20  26
BRANCH  21  28
HETATM   28  O   UNL     1      48.017  36.479  42.877  1.00  0.00    -0.380 OA
HETATM   29  H   UNL     1      48.839  37.005  42.820  1.00  0.00     0.211 HD
ENDBRANCH  21  28
BRANCH  22  30
HETATM   30  O   UNL     1      47.873  37.918  45.338  1.00  0.00    -0.378 OA
HETATM   31  H   UNL     1      48.070  37.258  46.030  1.00  0.00     0.211 HD
ENDBRANCH  22  30
ENDBRANCH   1  17
TORSDOF 12
ENDMDL
MODEL 4
REMARK VINA RESULT:    -5.405      1.495      5.986
REMARK INTER + INTRA:          -9.270
REMARK INTER:                  -7.754
REMARK INTRA:                  -1.516
REMARK UNBOUND:                -1.338
REMARK  12 active torsions:
REMARK  status: ('A' for Active; 'I' for Inactive)
REMARK    1  A    between atoms: O_1  and  C_12 
REMARK    2  A    between atoms: O_1  and  C_14 
REMARK    3  A    between atoms: O_4  and  C_13 
REMARK    4  A    between atoms: O_5  and  C_16 
REMARK    5  A    between atoms: O_6  and  C_17 
REMARK    6  A    between atoms: O_7  and  C_18 
REMARK    7  A    between atoms: O_8  and  C_19 
REMARK    8  A    between atoms: O_9  and  C_21 
REMARK    9  A    between atoms: O_10  and  C_22 
REMARK   10  A    between atoms: O_11  and  C_23 
REMARK   11  A    between atoms: C_15  and  C_22 
REMARK   12  A    between atoms: C_20  and  C_23 
ROOT
HETATM    1  O   UNL     1      45.650  39.610  44.295  1.00  0.00    -0.326 OA
ENDROOT
BRANCH   1   2
HETATM    2  C   UNL     1      44.716  38.745  43.617  1.00  0.00     0.177 C 
HETATM    3  C   UNL     1      44.702  39.051  42.104  1.00  0.00     0.172 C 
HETATM    4  C   UNL     1      43.968  37.963  41.310  1.00  0.00     0.197 C 
HETATM    5  C   UNL     1      44.453  36.565  41.721  1.00  0.00     0.263 C 
HETATM    6  O   UNL     1      44.339  36.368  43.119  1.00  0.00    -0.327 OA
HETATM    7  C   UNL     1      45.162  37.291  43.850  1.00  0.00     0.177 C 
BRANCH   3   8
HETATM    8  O   UNL     1      44.050  40.312  41.868  1.00  0.00    -0.380 OA
HETATM    9  H   UNL     1      43.092  40.109  41.846  1.00  0.00     0.211 HD
ENDBRANCH   3   8
BRANCH   4  10
HETATM   10  O   UNL     1      44.190  38.143  39.900  1.00  0.00    -0.378 OA
HETATM   11  H   UNL     1      43.475  38.738  39.602  1.00  0.00     0.211 HD
ENDBRANCH   4  10
BRANCH   5  12
HETATM   12  O   UNL     1      43.632  35.603  41.070  1.00  0.00    -0.359 OA
HETATM   13  H   UNL     1      42.868  36.101  40.738  1.00  0.00     0.213 HD
ENDBRANCH   5  12
BRANCH   7  14
HETATM   14  C   UNL     1      45.059  36.912  45.332  1.00  0.00     0.170 C 
BRANCH  14  15
HETATM   15  O   UNL     1      46.279  37.237  45.996  1.00  0.00    -0.380 OA
HETATM   16  H   UNL     1      46.295  38.212  46.057  1.00  0.00     0.211 HD
ENDBRANCH  14  15
ENDBRANCH   7  14
ENDBRANCH   1   2
BRANCH   1  17
HETATM   17  C   UNL     1      45.031  40.687  45.011  1.00  0.00     0.266 C 
HETATM   18  O   UNL     1      44.918  41.822  44.160  1.00  0.00    -0.326 OA
HETATM   19  C   UNL     1      44.238  42.919  44.812  1.00  0.00     0.176 C 
HETATM   20  C   UNL     1      45.112  43.425  45.969  1.00  0.00     0.170 C 
HETATM   21  C   UNL     1      45.364  42.258  46.944  1.00  0.00     0.172 C 
HETATM   22  C   UNL     1      45.923  41.026  46.221  1.00  0.00     0.197 C 
BRANCH  19  23
HETATM   23  C   UNL     1      43.982  43.991  43.750  1.00  0.00     0.170 C 
BRANCH  23  24
HETATM   24  O   UNL     1      44.989  43.903  42.738  1.00  0.00    -0.380 OA
HETATM   25  H   UNL     1      45.202  44.818  42.460  1.00  0.00     0.211 HD
ENDBRANCH  23  24
ENDBRANCH  19  23
BRANCH  20  26
HETATM   26  O   UNL     1      46.342  43.951  45.451  1.00  0.00    -0.380 OA
HETATM   27  H   UNL     1      46.978  43.224  45.345  1.00  0.00     0.211 HD
ENDBRANCH  20  26
BRANCH  21  28
HETATM   28  O   UNL     1      46.251  42.643  47.997  1.00  0.00    -0.380 OA
HETATM   29  H   UNL     1      45.687  42.805  48.778  1.00  0.00     0.211 HD
ENDBRANCH  21  28
BRANCH  22  30
HETATM   30  O   UNL     1      45.980  39.931  47.149  1.00  0.00    -0.378 OA
HETATM   31  H   UNL     1      46.319  39.166  46.645  1.00  0.00     0.211 HD
ENDBRANCH  22  30
ENDBRANCH   1  17
TORSDOF 12
ENDMDL
MODEL 5
REMARK VINA RESULT:    -5.247      5.229      8.205
REMARK INTER + INTRA:          -9.039
REMARK INTER:                  -7.695
REMARK INTRA:                  -1.344
REMARK UNBOUND:                -1.338
REMARK  12 active torsions:
REMARK  status: ('A' for Active; 'I' for Inactive)
REMARK    1  A    between atoms: O_1  and  C_12 
REMARK    2  A    between atoms: O_1  and  C_14 
REMARK    3  A    between atoms: O_4  and  C_13 
REMARK    4  A    between atoms: O_5  and  C_16 
REMARK    5  A    between atoms: O_6  and  C_17 
REMARK    6  A    between atoms: O_7  and  C_18 
REMARK    7  A    between atoms: O_8  and  C_19 
REMARK    8  A    between atoms: O_9  and  C_21 
REMARK    9  A    between atoms: O_10  and  C_22 
REMARK   10  A    between atoms: O_11  and  C_23 
REMARK   11  A    between atoms: C_15  and  C_22 
REMARK   12  A    between atoms: C_20  and  C_23 
ROOT
HETATM    1  O   UNL     1      41.699  35.725  40.387  1.00  0.00    -0.326 OA
ENDROOT
BRANCH   1   2
HETATM    2  C   UNL     1      43.044  36.179  40.640  1.00  0.00     0.177 C 
HETATM    3  C   UNL     1      43.627  36.861  39.384  1.00  0.00     0.172 C 
HETATM    4  C   UNL     1      44.918  37.627  39.697  1.00  0.00     0.197 C 
HETATM    5  C   UNL     1      44.739  38.515  40.937  1.00  0.00     0.263 C 
HETATM    6  O   UNL     1      44.284  37.766  42.050  1.00  0.00    -0.327 OA
HETATM    7  C   UNL     1      42.993  37.187  41.802  1.00  0.00     0.177 C 
BRANCH   3   8
HETATM    8  O   UNL     1      43.912  35.870  38.380  1.00  0.00    -0.380 OA
HETATM    9  H   UNL     1      44.509  36.310  37.741  1.00  0.00     0.211 HD
ENDBRANCH   3   8
BRANCH   4  10
HETATM   10  O   UNL     1      45.292  38.449  38.578  1.00  0.00    -0.378 OA
HETATM   11  H   UNL     1      46.027  37.974  38.145  1.00  0.00     0.211 HD
ENDBRANCH   4  10
BRANCH   5  12
HETATM   12  O   UNL     1      46.004  39.074  41.268  1.00  0.00    -0.359 OA
HETATM   13  H   UNL     1      46.153  39.777  40.614  1.00  0.00     0.213 HD
ENDBRANCH   5  12
BRANCH   7  14
HETATM   14  C   UNL     1      42.546  36.509  43.102  1.00  0.00     0.170 C 
BRANCH  14  15
HETATM   15  O   UNL     1      41.132  36.313  43.079  1.00  0.00    -0.380 OA
HETATM   16  H   UNL     1      40.941  35.865  42.232  1.00  0.00     0.211 HD
ENDBRANCH  14  15
ENDBRANCH   7  14
ENDBRANCH   1   2
BRANCH   1  17
HETATM   17  C   UNL     1      41.623  34.378  39.900  1.00  0.00     0.266 C 
HETATM   18  O   UNL     1      41.373  34.392  38.499  1.00  0.00    -0.326 OA
HETATM   19  C   UNL     1      41.352  33.058  37.941  1.00  0.00     0.176 C 
HETATM   20  C   UNL     1      40.143  32.303  38.513  1.00  0.00     0.170 C 
HETATM   21  C   UNL     1      40.263  32.271  40.049  1.00  0.00     0.172 C 
HETATM   22  C   UNL     1      40.463  33.675  40.632  1.00  0.00     0.197 C 
BRANCH  19  23
HETATM   23  C   UNL     1      41.296  33.202  36.419  1.00  0.00     0.170 C 
BRANCH  23  24
HETATM   24  O   UNL     1      40.582  32.093  35.866  1.00  0.00    -0.380 OA
HETATM   25  H   UNL     1      40.003  32.444  35.158  1.00  0.00     0.211 HD
ENDBRANCH  23  24
ENDBRANCH  19  23
BRANCH  20  26
HETATM   26  O   UNL     1      38.930  32.943  38.094  1.00  0.00    -0.380 OA
HETATM   27  H   UNL     1      38.397  33.155  38.878  1.00  0.00     0.211 HD
ENDBRANCH  20  26
BRANCH  21  28
HETATM   28  O   UNL     1      39.117  31.659  40.646  1.00  0.00    -0.380 OA
HETATM   29  H   UNL     1      38.511  32.391  40.876  1.00  0.00     0.211 HD
ENDBRANCH  21  28
BRANCH  22  30
HETATM   30  O   UNL     1      40.729  33.559  42.038  1.00  0.00    -0.378 OA
HETATM   31  H   UNL     1      39.859  33.598  42.482  1.00  0.00     0.211 HD
ENDBRANCH  22  30
ENDBRANCH   1  17
TORSDOF 12
ENDMDL
MODEL 6
REMARK VINA RESULT:    -5.153      4.514      6.781
REMARK INTER + INTRA:          -8.901
REMARK INTER:                  -7.319
REMARK INTRA:                  -1.581
REMARK UNBOUND:                -1.338
REMARK  12 active torsions:
REMARK  status: ('A' for Active; 'I' for Inactive)
REMARK    1  A    between atoms: O_1  and  C_12 
REMARK    2  A    between atoms: O_1  and  C_14 
REMARK    3  A    between atoms: O_4  and  C_13 
REMARK    4  A    between atoms: O_5  and  C_16 
REMARK    5  A    between atoms: O_6  and  C_17 
REMARK    6  A    between atoms: O_7  and  C_18 
REMARK    7  A    between atoms: O_8  and  C_19 
REMARK    8  A    between atoms: O_9  and  C_21 
REMARK    9  A    between atoms: O_10  and  C_22 
REMARK   10  A    between atoms: O_11  and  C_23 
REMARK   11  A    between atoms: C_15  and  C_22 
REMARK   12  A    between atoms: C_20  and  C_23 
ROOT
HETATM    1  O   UNL     1      46.428  38.412  42.145  1.00  0.00    -0.326 OA
ENDROOT
BRANCH   1   2
HETATM    2  C   UNL     1      45.331  38.225  43.063  1.00  0.00     0.177 C 
HETATM    3  C   UNL     1      44.057  37.805  42.300  1.00  0.00     0.172 C 
HETATM    4  C   UNL     1      42.965  37.298  43.249  1.00  0.00     0.197 C 
HETATM    5  C   UNL     1      43.535  36.275  44.241  1.00  0.00     0.263 C 
HETATM    6  O   UNL     1      44.647  36.801  44.946  1.00  0.00    -0.327 OA
HETATM    7  C   UNL     1      45.729  37.120  44.057  1.00  0.00     0.177 C 
BRANCH   3   8
HETATM    8  O   UNL     1      43.540  38.928  41.562  1.00  0.00    -0.380 OA
HETATM    9  H   UNL     1      43.742  39.714  42.109  1.00  0.00     0.211 HD
ENDBRANCH   3   8
BRANCH   4  10
HETATM   10  O   UNL     1      41.901  36.686  42.500  1.00  0.00    -0.378 OA
HETATM   11  H   UNL     1      42.342  36.201  41.776  1.00  0.00     0.211 HD
ENDBRANCH   4  10
BRANCH   5  12
HETATM   12  O   UNL     1      42.521  35.963  45.188  1.00  0.00    -0.359 OA
HETATM   13  H   UNL     1      42.280  35.039  45.010  1.00  0.00     0.213 HD
ENDBRANCH   5  12
BRANCH   7  14
HETATM   14  C   UNL     1      46.912  37.559  44.928  1.00  0.00     0.170 C 
BRANCH  14  15
HETATM   15  O   UNL     1      48.137  37.183  44.298  1.00  0.00    -0.380 OA
HETATM   16  H   UNL     1      48.032  36.242  44.058  1.00  0.00     0.211 HD
ENDBRANCH  14  15
ENDBRANCH   7  14
ENDBRANCH   1   2
BRANCH   1  17
HETATM   17  C   UNL     1      46.532  37.387  41.148  1.00  0.00     0.266 C 
HETATM   18  O   UNL     1      47.635  36.540  41.449  1.00  0.00    -0.326 OA
HETATM   19  C   UNL     1      47.747  35.446  40.510  1.00  0.00     0.176 C 
HETATM   20  C   UNL     1      48.101  36.015  39.128  1.00  0.00     0.170 C 
HETATM   21  C   UNL     1      47.000  37.010  38.708  1.00  0.00     0.172 C 
HETATM   22  C   UNL     1      46.755  38.073  39.786  1.00  0.00     0.197 C 
BRANCH  19  23
HETATM   23  C   UNL     1      48.815  34.491  41.049  1.00  0.00     0.170 C 
BRANCH  23  24
HETATM   24  O   UNL     1      49.761  35.231  41.825  1.00  0.00    -0.380 OA
HETATM   25  H   UNL     1      49.810  36.132  41.443  1.00  0.00     0.211 HD
ENDBRANCH  23  24
ENDBRANCH  19  23
BRANCH  20  26
HETATM   26  O   UNL     1      49.387  36.647  39.180  1.00  0.00    -0.380 OA
HETATM   27  H   UNL     1      50.074  35.981  39.012  1.00  0.00     0.211 HD
ENDBRANCH  20  26
BRANCH  21  28
HETATM   28  O   UNL     1      47.320  37.644  37.468  1.00  0.00    -0.380 OA
HETATM   29  H   UNL     1      48.243  37.393  37.268  1.00  0.00     0.211 HD
ENDBRANCH  21  28
BRANCH  22  30
HETATM   30  O   UNL     1      45.617  38.862  39.408  1.00  0.00    -0.378 OA
HETATM   31  H   UNL     1      45.760  39.114  38.475  1.00  0.00     0.211 HD
ENDBRANCH  22  30
ENDBRANCH   1  17
TORSDOF 12
ENDMDL
MODEL 7
REMARK VINA RESULT:    -5.135      1.998      4.891
REMARK INTER + INTRA:          -8.874
REMARK INTER:                  -7.383
REMARK INTRA:                  -1.491
REMARK UNBOUND:                -1.338
REMARK  12 active torsions:
REMARK  status: ('A' for Active; 'I' for Inactive)
REMARK    1  A    between atoms: O_1  and  C_12 
REMARK    2  A    between atoms: O_1  and  C_14 
REMARK    3  A    between atoms: O_4  and  C_13 
REMARK    4  A    between atoms: O_5  and  C_16 
REMARK    5  A    between atoms: O_6  and  C_17 
REMARK    6  A    between atoms: O_7  and  C_18 
REMARK    7  A    between atoms: O_8  and  C_19 
REMARK    8  A    between atoms: O_9  and  C_21 
REMARK    9  A    between atoms: O_10  and  C_22 
REMARK   10  A    between atoms: O_11  and  C_23 
REMARK   11  A    between atoms: C_15  and  C_22 
REMARK   12  A    between atoms: C_20  and  C_23 
ROOT
HETATM    1  O   UNL     1      44.831  39.323  43.395  1.00  0.00    -0.326 OA
ENDROOT
BRANCH   1   2
HETATM    2  C   UNL     1      44.691  39.623  44.798  1.00  0.00     0.177 C 
HETATM    3  C   UNL     1      45.604  38.703  45.638  1.00  0.00     0.172 C 
HETATM    4  C   UNL     1      45.723  39.188  47.088  1.00  0.00     0.197 C 
HETATM    5  C   UNL     1      46.035  40.691  47.137  1.00  0.00     0.263 C 
HETATM    6  O   UNL     1      45.082  41.442  46.405  1.00  0.00    -0.327 OA
HETATM    7  C   UNL     1      45.096  41.092  45.011  1.00  0.00     0.177 C 
BRANCH   3   8
HETATM    8  O   UNL     1      45.074  37.365  45.642  1.00  0.00    -0.380 OA
HETATM    9  H   UNL     1      45.303  36.997  46.520  1.00  0.00     0.211 HD
ENDBRANCH   3   8
BRANCH   4  10
HETATM   10  O   UNL     1      46.765  38.468  47.768  1.00  0.00    -0.378 OA
HETATM   11  H   UNL     1      47.530  38.490  47.163  1.00  0.00     0.211 HD
ENDBRANCH   4  10
BRANCH   5  12
HETATM   12  O   UNL     1      45.977  41.110  48.495  1.00  0.00    -0.359 OA
HETATM   13  H   UNL     1      45.536  41.975  48.478  1.00  0.00     0.213 HD
ENDBRANCH   5  12
BRANCH   7  14
HETATM   14  C   UNL     1      44.126  42.042  44.299  1.00  0.00     0.170 C 
BRANCH  14  15
HETATM   15  O   UNL     1      44.595  42.300  42.975  1.00  0.00    -0.380 OA
HETATM   16  H   UNL     1      43.813  42.210  42.396  1.00  0.00     0.211 HD
ENDBRANCH  14  15
ENDBRANCH   7  14
ENDBRANCH   1   2
BRANCH   1  17
HETATM   17  C   UNL     1      43.760  38.534  42.860  1.00  0.00     0.266 C 
HETATM   18  O   UNL     1      44.161  37.170  42.792  1.00  0.00    -0.326 OA
HETATM   19  C   UNL     1      43.094  36.316  42.321  1.00  0.00     0.176 C 
HETATM   20  C   UNL     1      42.786  36.671  40.859  1.00  0.00     0.170 C 
HETATM   21  C   UNL     1      42.392  38.160  40.785  1.00  0.00     0.172 C 
HETATM   22  C   UNL     1      43.445  39.058  41.446  1.00  0.00     0.197 C 
BRANCH  19  23
HETATM   23  C   UNL     1      43.559  34.868  42.493  1.00  0.00     0.170 C 
BRANCH  23  24
HETATM   24  O   UNL     1      44.965  34.792  42.246  1.00  0.00    -0.380 OA
HETATM   25  H   UNL     1      45.083  34.573  41.299  1.00  0.00     0.211 HD
ENDBRANCH  23  24
ENDBRANCH  19  23
BRANCH  20  26
HETATM   26  O   UNL     1      43.930  36.390  40.041  1.00  0.00    -0.380 OA
HETATM   27  H   UNL     1      44.424  35.650  40.432  1.00  0.00     0.211 HD
ENDBRANCH  20  26
BRANCH  21  28
HETATM   28  O   UNL     1      42.182  38.575  39.434  1.00  0.00    -0.380 OA
HETATM   29  H   UNL     1      42.845  39.272  39.261  1.00  0.00     0.211 HD
ENDBRANCH  21  28
BRANCH  22  30
HETATM   30  O   UNL     1      42.945  40.403  41.488  1.00  0.00    -0.378 OA
HETATM   31  H   UNL     1      43.114  40.783  40.604  1.00  0.00     0.211 HD
ENDBRANCH  22  30
ENDBRANCH   1  17
TORSDOF 12
ENDMDL
MODEL 8
REMARK VINA RESULT:    -4.976      3.891      6.700
REMARK INTER + INTRA:          -8.641
REMARK INTER:                  -7.161
REMARK INTRA:                  -1.479
REMARK UNBOUND:                -1.338
REMARK  12 active torsions:
REMARK  status: ('A' for Active; 'I' for Inactive)
REMARK    1  A    between atoms: O_1  and  C_12 
REMARK    2  A    between atoms: O_1  and  C_14 
REMARK    3  A    between atoms: O_4  and  C_13 
REMARK    4  A    between atoms: O_5  and  C_16 
REMARK    5  A    between atoms: O_6  and  C_17 
REMARK    6  A    between atoms: O_7  and  C_18 
REMARK    7  A    between atoms: O_8  and  C_19 
REMARK    8  A    between atoms: O_9  and  C_21 
REMARK    9  A    between atoms: O_10  and  C_22 
REMARK   10  A    between atoms: O_11  and  C_23 
REMARK   11  A    between atoms: C_15  and  C_22 
REMARK   12  A    between atoms: C_20  and  C_23 
ROOT
HETATM    1  O   UNL     1      46.084  38.279  41.552  1.00  0.00    -0.326 OA
ENDROOT
BRANCH   1   2
HETATM    2  C   UNL     1      45.447  37.939  42.801  1.00  0.00     0.177 C 
HETATM    3  C   UNL     1      46.393  38.236  43.985  1.00  0.00     0.172 C 
HETATM    4  C   UNL     1      45.657  38.187  45.329  1.00  0.00     0.197 C 
HETATM    5  C   UNL     1      44.357  39.003  45.271  1.00  0.00     0.263 C 
HETATM    6  O   UNL     1      43.530  38.584  44.199  1.00  0.00    -0.327 OA
HETATM    7  C   UNL     1      44.172  38.790  42.929  1.00  0.00     0.177 C 
BRANCH   3   8
HETATM    8  O   UNL     1      47.460  37.271  44.009  1.00  0.00    -0.380 OA
HETATM    9  H   UNL     1      47.238  36.655  44.737  1.00  0.00     0.211 HD
ENDBRANCH   3   8
BRANCH   4  10
HETATM   10  O   UNL     1      46.495  38.710  46.374  1.00  0.00    -0.378 OA
HETATM   11  H   UNL     1      46.471  39.679  46.261  1.00  0.00     0.211 HD
ENDBRANCH   4  10
BRANCH   5  12
HETATM   12  O   UNL     1      43.647  38.791  46.484  1.00  0.00    -0.359 OA
HETATM   13  H   UNL     1      42.877  38.252  46.240  1.00  0.00     0.213 HD
ENDBRANCH   5  12
BRANCH   7  14
HETATM   14  C   UNL     1      43.151  38.423  41.845  1.00  0.00     0.170 C 
BRANCH  14  15
HETATM   15  O   UNL     1      43.305  39.297  40.727  1.00  0.00    -0.380 OA
HETATM   16  H   UNL     1      42.472  39.229  40.221  1.00  0.00     0.211 HD
ENDBRANCH  14  15
ENDBRANCH   7  14
ENDBRANCH   1   2
BRANCH   1  17
HETATM   17  C   UNL     1      46.323  37.153  40.697  1.00  0.00     0.266 C 
HETATM   18  O   UNL     1      47.447  36.423  41.175  1.00  0.00    -0.326 OA
HETATM   19  C   UNL     1      47.694  35.236  40.386  1.00  0.00     0.176 C 
HETATM   20  C   UNL     1      48.118  35.661  38.973  1.00  0.00     0.170 C 
HETATM   21  C   UNL     1      46.996  36.523  38.360  1.00  0.00     0.172 C 
HETATM   22  C   UNL     1      46.608  37.687  39.280  1.00  0.00     0.197 C 
BRANCH  19  23
HETATM   23  C   UNL     1      48.772  34.425  41.110  1.00  0.00     0.170 C 
BRANCH  23  24
HETATM   24  O   UNL     1      49.773  35.314  41.612  1.00  0.00    -0.380 OA
HETATM   25  H   UNL     1      49.359  35.848  42.321  1.00  0.00     0.211 HD
ENDBRANCH  23  24
ENDBRANCH  19  23
BRANCH  20  26
HETATM   26  O   UNL     1      49.358  36.380  39.035  1.00  0.00    -0.380 OA
HETATM   27  H   UNL     1      49.235  37.258  38.637  1.00  0.00     0.211 HD
ENDBRANCH  20  26
BRANCH  21  28
HETATM   28  O   UNL     1      47.372  37.028  37.076  1.00  0.00    -0.380 OA
HETATM   29  H   UNL     1      47.078  37.959  37.057  1.00  0.00     0.211 HD
ENDBRANCH  21  28
BRANCH  22  30
HETATM   30  O   UNL     1      45.458  38.348  38.731  1.00  0.00    -0.378 OA
HETATM   31  H   UNL     1      44.680  37.932  39.151  1.00  0.00     0.211 HD
ENDBRANCH  22  30
ENDBRANCH   1  17
TORSDOF 12
ENDMDL
MODEL 9
REMARK VINA RESULT:    -4.975      2.268      6.697
REMARK INTER + INTRA:          -8.639
REMARK INTER:                  -7.347
REMARK INTRA:                  -1.292
REMARK UNBOUND:                -1.338
REMARK  12 active torsions:
REMARK  status: ('A' for Active; 'I' for Inactive)
REMARK    1  A    between atoms: O_1  and  C_12 
REMARK    2  A    between atoms: O_1  and  C_14 
REMARK    3  A    between atoms: O_4  and  C_13 
REMARK    4  A    between atoms: O_5  and  C_16 
REMARK    5  A    between atoms: O_6  and  C_17 
REMARK    6  A    between atoms: O_7  and  C_18 
REMARK    7  A    between atoms: O_8  and  C_19 
REMARK    8  A    between atoms: O_9  and  C_21 
REMARK    9  A    between atoms: O_10  and  C_22 
REMARK   10  A    between atoms: O_11  and  C_23 
REMARK   11  A    between atoms: C_15  and  C_22 
REMARK   12  A    between atoms: C_20  and  C_23 
ROOT
HETATM    1  O   UNL     1      44.244  39.588  43.844  1.00  0.00    -0.326 OA
ENDROOT
BRANCH   1   2
HETATM    2  C   UNL     1      44.263  38.158  44.032  1.00  0.00     0.177 C 
HETATM    3  C   UNL     1      42.871  37.656  44.472  1.00  0.00     0.172 C 
HETATM    4  C   UNL     1      42.761  36.129  44.382  1.00  0.00     0.197 C 
HETATM    5  C   UNL     1      43.272  35.624  43.025  1.00  0.00     0.263 C 
HETATM    6  O   UNL     1      44.590  36.076  42.767  1.00  0.00    -0.327 OA
HETATM    7  C   UNL     1      44.649  37.510  42.691  1.00  0.00     0.177 C 
BRANCH   3   8
HETATM    8  O   UNL     1      42.617  38.056  45.832  1.00  0.00    -0.380 OA
HETATM    9  H   UNL     1      43.413  38.553  46.109  1.00  0.00     0.211 HD
ENDBRANCH   3   8
BRANCH   4  10
HETATM   10  O   UNL     1      41.393  35.719  44.553  1.00  0.00    -0.378 OA
HETATM   11  H   UNL     1      41.161  35.972  45.466  1.00  0.00     0.211 HD
ENDBRANCH   4  10
BRANCH   5  12
HETATM   12  O   UNL     1      43.293  34.202  43.061  1.00  0.00    -0.359 OA
HETATM   13  H   UNL     1      43.695  33.974  43.914  1.00  0.00     0.213 HD
ENDBRANCH   5  12
BRANCH   7  14
HETATM   14  C   UNL     1      46.081  37.881  42.289  1.00  0.00     0.170 C 
BRANCH  14  15
HETATM   15  O   UNL     1      46.069  39.098  41.543  1.00  0.00    -0.380 OA
HETATM   16  H   UNL     1      45.149  39.423  41.582  1.00  0.00     0.211 HD
ENDBRANCH  14  15
ENDBRANCH   7  14
ENDBRANCH   1   2
BRANCH   1  17
HETATM   17  C   UNL     1      44.966  40.316  44.847  1.00  0.00     0.266 C 
HETATM   18  O   UNL     1      45.323  39.437  45.908  1.00  0.00    -0.326 OA
HETATM   19  C   UNL     1      46.113  40.104  46.919  1.00  0.00     0.176 C 
HETATM   20  C   UNL     1      45.240  41.162  47.609  1.00  0.00     0.170 C 
HETATM   21  C   UNL     1      44.732  42.154  46.543  1.00  0.00     0.172 C 
HETATM   22  C   UNL     1      44.046  41.431  45.377  1.00  0.00     0.197 C 
BRANCH  19  23
HETATM   23  C   UNL     1      46.617  39.029  47.885  1.00  0.00     0.170 C 
BRANCH  23  24
HETATM   24  O   UNL     1      46.606  39.549  49.216  1.00  0.00    -0.380 OA
HETATM   25  H   UNL     1      45.704  39.416  49.574  1.00  0.00     0.211 HD
ENDBRANCH  23  24
ENDBRANCH  19  23
BRANCH  20  26
HETATM   26  O   UNL     1      44.152  40.522  48.291  1.00  0.00    -0.380 OA
HETATM   27  H   UNL     1      43.850  39.765  47.764  1.00  0.00     0.211 HD
ENDBRANCH  20  26
BRANCH  21  28
HETATM   28  O   UNL     1      43.836  43.112  47.112  1.00  0.00    -0.380 OA
HETATM   29  H   UNL     1      44.123  43.982  46.772  1.00  0.00     0.211 HD
ENDBRANCH  21  28
BRANCH  22  30
HETATM   30  O   UNL     1      43.744  42.390  44.352  1.00  0.00    -0.378 OA
HETATM   31  H   UNL     1      43.737  41.893  43.511  1.00  0.00     0.211 HD
ENDBRANCH  22  30
ENDBRANCH   1  17
TORSDOF 12
ENDMDL
MODEL 10
REMARK VINA RESULT:    -4.846      2.593      5.258
REMARK INTER + INTRA:          -8.450
REMARK INTER:                  -7.214
REMARK INTRA:                  -1.235
REMARK UNBOUND:                -1.338
REMARK  12 active torsions:
REMARK  status: ('A' for Active; 'I' for Inactive)
REMARK    1  A    between atoms: O_1  and  C_12 
REMARK    2  A    between atoms: O_1  and  C_14 
REMARK    3  A    between atoms: O_4  and  C_13 
REMARK    4  A    between atoms: O_5  and  C_16 
REMARK    5  A    between atoms: O_6  and  C_17 
REMARK    6  A    between atoms: O_7  and  C_18 
REMARK    7  A    between atoms: O_8  and  C_19 
REMARK    8  A    between atoms: O_9  and  C_21 
REMARK    9  A    between atoms: O_10  and  C_22 
REMARK   10  A    between atoms: O_11  and  C_23 
REMARK   11  A    between atoms: C_15  and  C_22 
REMARK   12  A    between atoms: C_20  and  C_23 
ROOT
HETATM    1  O   UNL     1      43.313  38.123  42.769  1.00  0.00    -0.326 OA
ENDROOT
BRANCH   1   2
HETATM    2  C   UNL     1      44.004  38.587  43.947  1.00  0.00     0.177 C 
HETATM    3  C   UNL     1      44.108  40.128  43.938  1.00  0.00     0.172 C 
HETATM    4  C   UNL     1      44.550  40.678  45.300  1.00  0.00     0.197 C 
HETATM    5  C   UNL     1      43.723  40.055  46.434  1.00  0.00     0.263 C 
HETATM    6  O   UNL     1      43.772  38.640  46.394  1.00  0.00    -0.327 OA
HETATM    7  C   UNL     1      43.203  38.128  45.178  1.00  0.00     0.177 C 
BRANCH   3   8
HETATM    8  O   UNL     1      45.060  40.545  42.942  1.00  0.00    -0.380 OA
HETATM    9  H   UNL     1      45.940  40.363  43.332  1.00  0.00     0.211 HD
ENDBRANCH   3   8
BRANCH   4  10
HETATM   10  O   UNL     1      44.393  42.107  45.332  1.00  0.00    -0.378 OA
HETATM   11  H   UNL     1      45.282  42.458  45.530  1.00  0.00     0.211 HD
ENDBRANCH   4  10
BRANCH   5  12
HETATM   12  O   UNL     1      44.279  40.481  47.672  1.00  0.00    -0.359 OA
HETATM   13  H   UNL     1      44.578  39.668  48.112  1.00  0.00     0.213 HD
ENDBRANCH   5  12
BRANCH   7  14
HETATM   14  C   UNL     1      43.194  36.599  45.293  1.00  0.00     0.170 C 
BRANCH  14  15
HETATM   15  O   UNL     1      44.464  36.082  44.897  1.00  0.00    -0.380 OA
HETATM   16  H   UNL     1      44.691  36.543  44.067  1.00  0.00     0.211 HD
ENDBRANCH  14  15
ENDBRANCH   7  14
ENDBRANCH   1   2
BRANCH   1  17
HETATM   17  C   UNL     1      44.163  37.469  41.818  1.00  0.00     0.266 C 
HETATM   18  O   UNL     1      45.494  37.424  42.320  1.00  0.00    -0.326 OA
HETATM   19  C   UNL     1      46.383  36.713  41.428  1.00  0.00     0.176 C 
HETATM   20  C   UNL     1      46.520  37.515  40.125  1.00  0.00     0.170 C 
HETATM   21  C   UNL     1      45.119  37.690  39.505  1.00  0.00     0.172 C 
HETATM   22  C   UNL     1      44.124  38.283  40.510  1.00  0.00     0.197 C 
BRANCH  19  23
HETATM   23  C   UNL     1      47.717  36.539  42.159  1.00  0.00     0.170 C 
BRANCH  23  24
HETATM   24  O   UNL     1      48.510  35.570  41.468  1.00  0.00    -0.380 OA
HETATM   25  H   UNL     1      49.200  35.262  42.091  1.00  0.00     0.211 HD
ENDBRANCH  23  24
ENDBRANCH  19  23
BRANCH  20  26
HETATM   26  O   UNL     1      47.135  38.781  40.398  1.00  0.00    -0.380 OA
HETATM   27  H   UNL     1      47.940  38.636  40.922  1.00  0.00     0.211 HD
ENDBRANCH  20  26
BRANCH  21  28
HETATM   28  O   UNL     1      45.169  38.510  38.334  1.00  0.00    -0.380 OA
HETATM   29  H   UNL     1      45.992  39.032  38.407  1.00  0.00     0.211 HD
ENDBRANCH  21  28
BRANCH  22  30
HETATM   30  O   UNL     1      42.812  38.268  39.926  1.00  0.00    -0.378 OA
HETATM   31  H   UNL     1      42.341  39.037  40.300  1.00  0.00     0.211 HD
ENDBRANCH  22  30
ENDBRANCH   1  17
TORSDOF 12
ENDMDL
