MODEL 1
REMARK VINA RESULT:    -6.151      0.000      0.000
REMARK INTER + INTRA:          -7.991
REMARK INTER:                  -7.590
REMARK INTRA:                  -0.401
REMARK UNBOUND:                -0.401
REMARK  6 active torsions:
REMARK  status: ('A' for Active; 'I' for Inactive)
REMARK    1  A    between atoms: S_1  and  C_15 
REMARK    2  A    between atoms: O_3  and  C_10 
REMARK    3  A    between atoms: O_4  and  C_12 
REMARK    4  A    between atoms: O_5  and  C_13 
REMARK    5  A    between atoms: O_6  and  C_14 
REMARK    6  A    between atoms: C_11  and  C_15 
ROOT
HETATM    1  O   UNL     1      44.228  43.169  44.140  1.00  0.00    -0.328 OA
HETATM    2  C   UNL     1      45.041  43.762  46.414  1.00  0.00     0.168 C 
HETATM    3  C   UNL     1      45.102  42.761  45.227  1.00  0.00     0.166 C 
HETATM    4  C   UNL     1      45.107  45.229  45.930  1.00  0.00     0.172 C 
HETATM    5  C   UNL     1      44.203  45.491  44.727  1.00  0.00     0.197 C 
HETATM    6  C   UNL     1      44.489  44.468  43.628  1.00  0.00     0.263 C 
ENDROOT
BRANCH   3   7
HETATM    7  C   UNL     1      44.605  41.358  45.581  1.00  0.00     0.178 C 
BRANCH   7   8
HETATM    8  S   UNL     1      45.873  40.141  45.729  1.00  0.00     0.118 S 
HETATM    9  O   UNL     1      45.274  39.157  46.628  1.00  0.00    -0.594 OA
HETATM   10  O   UNL     1      46.999  40.885  46.280  1.00  0.00    -0.594 OA
HETATM   11  O   UNL     1      46.044  39.683  44.353  1.00  0.00    -0.594 OA
ENDBRANCH   7   8
ENDBRANCH   3   7
BRANCH   2  12
HETATM   12  O   UNL     1      46.122  43.591  47.333  1.00  0.00    -0.380 OA
HETATM   13  H   UNL     1      46.854  44.208  47.079  1.00  0.00     0.211 HD
ENDBRANCH   2  12
BRANCH   6  14
HETATM   14  O   UNL     1      45.802  44.563  43.125  1.00  0.00    -0.359 OA
HETATM   15  H   UNL     1      46.260  43.773  43.462  1.00  0.00     0.213 HD
ENDBRANCH   6  14
BRANCH   4  16
HETATM   16  O   UNL     1      44.711  46.132  46.985  1.00  0.00    -0.380 OA
HETATM   17  H   UNL     1      43.739  46.187  46.929  1.00  0.00     0.211 HD
ENDBRANCH   4  16
BRANCH   5  18
HETATM   18  O   UNL     1      42.822  45.403  45.148  1.00  0.00    -0.378 OA
HETATM   19  H   UNL     1      42.499  46.323  45.222  1.00  0.00     0.211 HD
ENDBRANCH   5  18
TORSDOF 6
ENDMDL
MODEL 2
REMARK VINA RESULT:    -5.355      1.623      2.829
REMARK INTER + INTRA:          -7.008
REMARK INTER:                  -6.524
REMARK INTRA:                  -0.484
REMARK UNBOUND:                -0.401
REMARK  6 active torsions:
REMARK  status: ('A' for Active; 'I' for Inactive)
REMARK    1  A    between atoms: S_1  and  C_15 
REMARK    2  A    between atoms: O_3  and  C_10 
REMARK    3  A    between atoms: O_4  and  C_12 
REMARK    4  A    between atoms: O_5  and  C_13 
REMARK    5  A    between atoms: O_6  and  C_14 
REMARK    6  A    between atoms: C_11  and  C_15 
ROOT
HETATM    1  O   UNL     1      45.917  44.422  46.365  1.00  0.00    -0.328 OA
HETATM    2  C   UNL     1      44.599  42.551  45.392  1.00  0.00     0.168 C 
HETATM    3  C   UNL     1      45.449  43.065  46.587  1.00  0.00     0.166 C 
HETATM    4  C   UNL     1      43.578  43.611  44.918  1.00  0.00     0.172 C 
HETATM    5  C   UNL     1      44.188  45.007  44.813  1.00  0.00     0.197 C 
HETATM    6  C   UNL     1      44.887  45.370  46.123  1.00  0.00     0.263 C 
ENDROOT
BRANCH   3   7
HETATM    7  C   UNL     1      46.738  42.271  46.810  1.00  0.00     0.178 C 
BRANCH   7   8
HETATM    8  S   UNL     1      46.533  40.763  47.700  1.00  0.00     0.118 S 
HETATM    9  O   UNL     1      45.278  40.977  48.417  1.00  0.00    -0.594 OA
HETATM   10  O   UNL     1      47.725  40.696  48.538  1.00  0.00    -0.594 OA
HETATM   11  O   UNL     1      46.465  39.765  46.636  1.00  0.00    -0.594 OA
ENDBRANCH   7   8
ENDBRANCH   3   7
BRANCH   2  12
HETATM   12  O   UNL     1      43.845  41.381  45.717  1.00  0.00    -0.380 OA
HETATM   13  H   UNL     1      43.879  41.245  46.697  1.00  0.00     0.211 HD
ENDBRANCH   2  12
BRANCH   6  14
HETATM   14  O   UNL     1      43.996  45.442  47.213  1.00  0.00    -0.359 OA
HETATM   15  H   UNL     1      43.868  46.394  47.372  1.00  0.00     0.213 HD
ENDBRANCH   6  14
BRANCH   4  16
HETATM   16  O   UNL     1      43.048  43.262  43.620  1.00  0.00    -0.380 OA
HETATM   17  H   UNL     1      43.445  42.399  43.400  1.00  0.00     0.211 HD
ENDBRANCH   4  16
BRANCH   5  18
HETATM   18  O   UNL     1      45.133  45.027  43.717  1.00  0.00    -0.378 OA
HETATM   19  H   UNL     1      44.835  44.342  43.086  1.00  0.00     0.211 HD
ENDBRANCH   5  18
TORSDOF 6
ENDMDL
MODEL 3
REMARK VINA RESULT:    -4.955      2.160      5.139
REMARK INTER + INTRA:          -6.514
REMARK INTER:                  -6.084
REMARK INTRA:                  -0.431
REMARK UNBOUND:                -0.401
REMARK  6 active torsions:
REMARK  status: ('A' for Active; 'I' for Inactive)
REMARK    1  A    between atoms: S_1  and  C_15 
REMARK    2  A    between atoms: O_3  and  C_10 
REMARK    3  A    between atoms: O_4  and  C_12 
REMARK    4  A    between atoms: O_5  and  C_13 
REMARK    5  A    between atoms: O_6  and  C_14 
REMARK    6  A    between atoms: C_11  and  C_15 
ROOT
HETATM    1  O   UNL     1      44.405  42.160  47.315  1.00  0.00    -0.328 OA
HETATM    2  C   UNL     1      44.540  40.713  45.297  1.00  0.00     0.168 C 
HETATM    3  C   UNL     1      44.762  42.125  45.907  1.00  0.00     0.166 C 
HETATM    4  C   UNL     1      45.085  39.598  46.220  1.00  0.00     0.172 C 
HETATM    5  C   UNL     1      44.706  39.812  47.684  1.00  0.00     0.197 C 
HETATM    6  C   UNL     1      45.100  41.222  48.124  1.00  0.00     0.263 C 
ENDROOT
BRANCH   3   7
HETATM    7  C   UNL     1      43.879  43.208  45.284  1.00  0.00     0.178 C 
BRANCH   7   8
HETATM    8  S   UNL     1      44.666  44.178  44.040  1.00  0.00     0.118 S 
HETATM    9  O   UNL     1      44.692  43.274  42.893  1.00  0.00    -0.594 OA
HETATM   10  O   UNL     1      45.967  44.488  44.620  1.00  0.00    -0.594 OA
HETATM   11  O   UNL     1      43.762  45.317  43.897  1.00  0.00    -0.594 OA
ENDBRANCH   7   8
ENDBRANCH   3   7
BRANCH   2  12
HETATM   12  O   UNL     1      45.196  40.550  44.037  1.00  0.00    -0.380 OA
HETATM   13  H   UNL     1      46.135  40.282  44.201  1.00  0.00     0.211 HD
ENDBRANCH   2  12
BRANCH   6  14
HETATM   14  O   UNL     1      46.492  41.438  48.073  1.00  0.00    -0.359 OA
HETATM   15  H   UNL     1      46.757  41.170  47.176  1.00  0.00     0.213 HD
ENDBRANCH   6  14
BRANCH   4  16
HETATM   16  O   UNL     1      44.576  38.309  45.816  1.00  0.00    -0.380 OA
HETATM   17  H   UNL     1      44.742  37.715  46.572  1.00  0.00     0.211 HD
ENDBRANCH   4  16
BRANCH   5  18
HETATM   18  O   UNL     1      43.279  39.620  47.833  1.00  0.00    -0.378 OA
HETATM   19  H   UNL     1      42.906  39.624  46.930  1.00  0.00     0.211 HD
ENDBRANCH   5  18
TORSDOF 6
ENDMDL
MODEL 4
REMARK VINA RESULT:    -4.758     10.537     11.955
REMARK INTER + INTRA:          -6.272
REMARK INTER:                  -6.075
REMARK INTRA:                  -0.197
REMARK UNBOUND:                -0.401
REMARK  6 active torsions:
REMARK  status: ('A' for Active; 'I' for Inactive)
REMARK    1  A    between atoms: S_1  and  C_15 
REMARK    2  A    between atoms: O_3  and  C_10 
REMARK    3  A    between atoms: O_4  and  C_12 
REMARK    4  A    between atoms: O_5  and  C_13 
REMARK    5  A    between atoms: O_6  and  C_14 
REMARK    6  A    between atoms: C_11  and  C_15 
ROOT
HETATM    1  O   UNL     1      37.076  43.446  54.507  1.00  0.00    -0.328 OA
HETATM    2  C   UNL     1      38.164  42.285  52.595  1.00  0.00     0.168 C 
HETATM    3  C   UNL     1      36.963  43.138  53.091  1.00  0.00     0.166 C 
HETATM    4  C   UNL     1      39.511  42.832  53.122  1.00  0.00     0.172 C 
HETATM    5  C   UNL     1      39.456  43.196  54.605  1.00  0.00     0.197 C 
HETATM    6  C   UNL     1      38.271  44.123  54.870  1.00  0.00     0.263 C 
ENDROOT
BRANCH   3   7
HETATM    7  C   UNL     1      35.615  42.422  52.985  1.00  0.00     0.178 C 
BRANCH   7   8
HETATM    8  S   UNL     1      34.316  43.389  52.289  1.00  0.00     0.118 S 
HETATM    9  O   UNL     1      33.203  43.142  53.203  1.00  0.00    -0.594 OA
HETATM   10  O   UNL     1      34.157  42.834  50.950  1.00  0.00    -0.594 OA
HETATM   11  O   UNL     1      34.858  44.744  52.340  1.00  0.00    -0.594 OA
ENDBRANCH   7   8
ENDBRANCH   3   7
BRANCH   2  12
HETATM   12  O   UNL     1      38.268  42.260  51.170  1.00  0.00    -0.380 OA
HETATM   13  H   UNL     1      38.097  41.337  50.856  1.00  0.00     0.211 HD
ENDBRANCH   2  12
BRANCH   6  14
HETATM   14  O   UNL     1      38.383  45.355  54.197  1.00  0.00    -0.359 OA
HETATM   15  H   UNL     1      39.154  45.255  53.611  1.00  0.00     0.213 HD
ENDBRANCH   6  14
BRANCH   4  16
HETATM   16  O   UNL     1      40.560  41.856  52.945  1.00  0.00    -0.380 OA
HETATM   17  H   UNL     1      40.381  41.433  52.084  1.00  0.00     0.211 HD
ENDBRANCH   4  16
BRANCH   5  18
HETATM   18  O   UNL     1      39.329  41.982  55.382  1.00  0.00    -0.378 OA
HETATM   19  H   UNL     1      38.451  41.609  55.167  1.00  0.00     0.211 HD
ENDBRANCH   5  18
TORSDOF 6
ENDMDL
MODEL 5
REMARK VINA RESULT:    -4.696      2.378      5.380
REMARK INTER + INTRA:          -6.195
REMARK INTER:                  -5.986
REMARK INTRA:                  -0.208
REMARK UNBOUND:                -0.401
REMARK  6 active torsions:
REMARK  status: ('A' for Active; 'I' for Inactive)
REMARK    1  A    between atoms: S_1  and  C_15 
REMARK    2  A    between atoms: O_3  and  C_10 
REMARK    3  A    between atoms: O_4  and  C_12 
REMARK    4  A    between atoms: O_5  and  C_13 
REMARK    5  A    between atoms: O_6  and  C_14 
REMARK    6  A    between atoms: C_11  and  C_15 
ROOT
HETATM    1  O   UNL     1      45.721  41.851  47.682  1.00  0.00    -0.328 OA
HETATM    2  C   UNL     1      45.819  39.970  46.058  1.00  0.00     0.168 C 
HETATM    3  C   UNL     1      45.569  41.488  46.283  1.00  0.00     0.166 C 
HETATM    4  C   UNL     1      47.076  39.479  46.811  1.00  0.00     0.172 C 
HETATM    5  C   UNL     1      47.148  40.010  48.242  1.00  0.00     0.197 C 
HETATM    6  C   UNL     1      46.987  41.530  48.241  1.00  0.00     0.263 C 
ENDROOT
BRANCH   3   7
HETATM    7  C   UNL     1      44.144  41.931  45.948  1.00  0.00     0.178 C 
BRANCH   7   8
HETATM    8  S   UNL     1      44.030  43.474  45.102  1.00  0.00     0.118 S 
HETATM    9  O   UNL     1      43.502  44.369  46.129  1.00  0.00    -0.594 OA
HETATM   10  O   UNL     1      43.122  43.190  43.996  1.00  0.00    -0.594 OA
HETATM   11  O   UNL     1      45.414  43.736  44.718  1.00  0.00    -0.594 OA
ENDBRANCH   7   8
ENDBRANCH   3   7
BRANCH   2  12
HETATM   12  O   UNL     1      46.021  39.646  44.680  1.00  0.00    -0.380 OA
HETATM   13  H   UNL     1      46.994  39.563  44.514  1.00  0.00     0.211 HD
ENDBRANCH   2  12
BRANCH   6  14
HETATM   14  O   UNL     1      48.028  42.187  47.556  1.00  0.00    -0.359 OA
HETATM   15  H   UNL     1      48.785  41.578  47.603  1.00  0.00     0.213 HD
ENDBRANCH   6  14
BRANCH   4  16
HETATM   16  O   UNL     1      47.101  38.036  46.874  1.00  0.00    -0.380 OA
HETATM   17  H   UNL     1      47.625  37.751  46.103  1.00  0.00     0.211 HD
ENDBRANCH   4  16
BRANCH   5  18
HETATM   18  O   UNL     1      46.099  39.394  49.025  1.00  0.00    -0.378 OA
HETATM   19  H   UNL     1      45.673  40.115  49.530  1.00  0.00     0.211 HD
ENDBRANCH   5  18
TORSDOF 6
ENDMDL
MODEL 6
REMARK VINA RESULT:    -4.552      3.511      5.043
REMARK INTER + INTRA:          -6.018
REMARK INTER:                  -5.602
REMARK INTRA:                  -0.415
REMARK UNBOUND:                -0.401
REMARK  6 active torsions:
REMARK  status: ('A' for Active; 'I' for Inactive)
REMARK    1  A    between atoms: S_1  and  C_15 
REMARK    2  A    between atoms: O_3  and  C_10 
REMARK    3  A    between atoms: O_4  and  C_12 
REMARK    4  A    between atoms: O_5  and  C_13 
REMARK    5  A    between atoms: O_6  and  C_14 
REMARK    6  A    between atoms: C_11  and  C_15 
ROOT
HETATM    1  O   UNL     1      45.231  40.694  46.149  1.00  0.00    -0.328 OA
HETATM    2  C   UNL     1      46.329  38.590  46.890  1.00  0.00     0.168 C 
HETATM    3  C   UNL     1      45.850  39.461  45.695  1.00  0.00     0.166 C 
HETATM    4  C   UNL     1      47.068  39.434  47.954  1.00  0.00     0.172 C 
HETATM    5  C   UNL     1      46.347  40.743  48.268  1.00  0.00     0.197 C 
HETATM    6  C   UNL     1      46.059  41.503  46.973  1.00  0.00     0.263 C 
ENDROOT
BRANCH   3   7
HETATM    7  C   UNL     1      44.759  38.799  44.851  1.00  0.00     0.178 C 
BRANCH   7   8
HETATM    8  S   UNL     1      45.294  38.221  43.273  1.00  0.00     0.118 S 
HETATM    9  O   UNL     1      46.203  37.131  43.619  1.00  0.00    -0.594 OA
HETATM   10  O   UNL     1      45.924  39.392  42.676  1.00  0.00    -0.594 OA
HETATM   11  O   UNL     1      44.046  37.797  42.644  1.00  0.00    -0.594 OA
ENDBRANCH   7   8
ENDBRANCH   3   7
BRANCH   2  12
HETATM   12  O   UNL     1      47.237  37.561  46.489  1.00  0.00    -0.380 OA
HETATM   13  H   UNL     1      46.775  36.687  46.556  1.00  0.00     0.211 HD
ENDBRANCH   2  12
BRANCH   6  14
HETATM   14  O   UNL     1      47.232  41.887  46.295  1.00  0.00    -0.359 OA
HETATM   15  H   UNL     1      47.958  41.462  46.785  1.00  0.00     0.213 HD
ENDBRANCH   6  14
BRANCH   4  16
HETATM   16  O   UNL     1      47.200  38.695  49.188  1.00  0.00    -0.380 OA
HETATM   17  H   UNL     1      47.975  39.078  49.639  1.00  0.00     0.211 HD
ENDBRANCH   4  16
BRANCH   5  18
HETATM   18  O   UNL     1      45.112  40.445  48.962  1.00  0.00    -0.378 OA
HETATM   19  H   UNL     1      44.479  40.148  48.278  1.00  0.00     0.211 HD
ENDBRANCH   5  18
TORSDOF 6
ENDMDL
MODEL 7
REMARK VINA RESULT:    -4.435      9.303     11.316
REMARK INTER + INTRA:          -5.873
REMARK INTER:                  -5.666
REMARK INTRA:                  -0.207
REMARK UNBOUND:                -0.401
REMARK  6 active torsions:
REMARK  status: ('A' for Active; 'I' for Inactive)
REMARK    1  A    between atoms: S_1  and  C_15 
REMARK    2  A    between atoms: O_3  and  C_10 
REMARK    3  A    between atoms: O_4  and  C_12 
REMARK    4  A    between atoms: O_5  and  C_13 
REMARK    5  A    between atoms: O_6  and  C_14 
REMARK    6  A    between atoms: C_11  and  C_15 
ROOT
HETATM    1  O   UNL     1      40.217  34.145  41.804  1.00  0.00    -0.328 OA
HETATM    2  C   UNL     1      41.873  35.033  40.174  1.00  0.00     0.168 C 
HETATM    3  C   UNL     1      40.652  34.101  40.419  1.00  0.00     0.166 C 
HETATM    4  C   UNL     1      41.681  36.414  40.841  1.00  0.00     0.172 C 
HETATM    5  C   UNL     1      41.136  36.309  42.264  1.00  0.00     0.197 C 
HETATM    6  C   UNL     1      39.878  35.441  42.277  1.00  0.00     0.263 C 
ENDROOT
BRANCH   3   7
HETATM    7  C   UNL     1      40.952  32.621  40.181  1.00  0.00     0.178 C 
BRANCH   7   8
HETATM    8  S   UNL     1      39.667  31.726  39.372  1.00  0.00     0.118 S 
HETATM    9  O   UNL     1      39.077  32.731  38.490  1.00  0.00    -0.594 OA
HETATM   10  O   UNL     1      38.815  31.283  40.469  1.00  0.00    -0.594 OA
HETATM   11  O   UNL     1      40.395  30.664  38.683  1.00  0.00    -0.594 OA
ENDBRANCH   7   8
ENDBRANCH   3   7
BRANCH   2  12
HETATM   12  O   UNL     1      42.103  35.282  38.786  1.00  0.00    -0.380 OA
HETATM   13  H   UNL     1      42.886  35.883  38.698  1.00  0.00     0.211 HD
ENDBRANCH   2  12
BRANCH   6  14
HETATM   14  O   UNL     1      38.825  35.998  41.524  1.00  0.00    -0.359 OA
HETATM   15  H   UNL     1      39.260  36.465  40.789  1.00  0.00     0.213 HD
ENDBRANCH   6  14
BRANCH   4  16
HETATM   16  O   UNL     1      42.935  37.129  40.900  1.00  0.00    -0.380 OA
HETATM   17  H   UNL     1      42.753  38.006  40.512  1.00  0.00     0.211 HD
ENDBRANCH   4  16
BRANCH   5  18
HETATM   18  O   UNL     1      42.154  35.731  43.116  1.00  0.00    -0.378 OA
HETATM   19  H   UNL     1      41.905  34.794  43.243  1.00  0.00     0.211 HD
ENDBRANCH   5  18
TORSDOF 6
ENDMDL
MODEL 8
REMARK VINA RESULT:    -4.387     10.269     11.710
REMARK INTER + INTRA:          -5.815
REMARK INTER:                  -5.417
REMARK INTRA:                  -0.398
REMARK UNBOUND:                -0.401
REMARK  6 active torsions:
REMARK  status: ('A' for Active; 'I' for Inactive)
REMARK    1  A    between atoms: S_1  and  C_15 
REMARK    2  A    between atoms: O_3  and  C_10 
REMARK    3  A    between atoms: O_4  and  C_12 
REMARK    4  A    between atoms: O_5  and  C_13 
REMARK    5  A    between atoms: O_6  and  C_14 
REMARK    6  A    between atoms: C_11  and  C_15 
ROOT
HETATM    1  O   UNL     1      37.301  41.140  52.505  1.00  0.00    -0.328 OA
HETATM    2  C   UNL     1      38.548  43.247  52.943  1.00  0.00     0.168 C 
HETATM    3  C   UNL     1      37.182  42.507  52.983  1.00  0.00     0.166 C 
HETATM    4  C   UNL     1      39.691  42.369  53.504  1.00  0.00     0.172 C 
HETATM    5  C   UNL     1      39.639  40.934  52.983  1.00  0.00     0.197 C 
HETATM    6  C   UNL     1      38.246  40.348  53.210  1.00  0.00     0.263 C 
ENDROOT
BRANCH   3   7
HETATM    7  C   UNL     1      36.124  43.120  52.064  1.00  0.00     0.178 C 
BRANCH   7   8
HETATM    8  S   UNL     1      34.772  43.886  52.898  1.00  0.00     0.118 S 
HETATM    9  O   UNL     1      34.070  42.748  53.489  1.00  0.00    -0.594 OA
HETATM   10  O   UNL     1      34.057  44.573  51.830  1.00  0.00    -0.594 OA
HETATM   11  O   UNL     1      35.438  44.758  53.862  1.00  0.00    -0.594 OA
ENDBRANCH   7   8
ENDBRANCH   3   7
BRANCH   2  12
HETATM   12  O   UNL     1      38.545  44.449  53.716  1.00  0.00    -0.380 OA
HETATM   13  H   UNL     1      37.608  44.680  53.938  1.00  0.00     0.211 HD
ENDBRANCH   2  12
BRANCH   6  14
HETATM   14  O   UNL     1      37.913  40.252  54.576  1.00  0.00    -0.359 OA
HETATM   15  H   UNL     1      37.425  41.070  54.776  1.00  0.00     0.213 HD
ENDBRANCH   6  14
BRANCH   4  16
HETATM   16  O   UNL     1      40.978  42.922  53.150  1.00  0.00    -0.380 OA
HETATM   17  H   UNL     1      41.167  42.586  52.254  1.00  0.00     0.211 HD
ENDBRANCH   4  16
BRANCH   5  18
HETATM   18  O   UNL     1      39.960  40.935  51.572  1.00  0.00    -0.378 OA
HETATM   19  H   UNL     1      39.367  40.278  51.155  1.00  0.00     0.211 HD
ENDBRANCH   5  18
TORSDOF 6
ENDMDL
MODEL 9
REMARK VINA RESULT:    -4.208     12.226     13.567
REMARK INTER + INTRA:          -5.593
REMARK INTER:                  -5.364
REMARK INTRA:                  -0.229
REMARK UNBOUND:                -0.401
REMARK  6 active torsions:
REMARK  status: ('A' for Active; 'I' for Inactive)
REMARK    1  A    between atoms: S_1  and  C_15 
REMARK    2  A    between atoms: O_3  and  C_10 
REMARK    3  A    between atoms: O_4  and  C_12 
REMARK    4  A    between atoms: O_5  and  C_13 
REMARK    5  A    between atoms: O_6  and  C_14 
REMARK    6  A    between atoms: C_11  and  C_15 
ROOT
HETATM    1  O   UNL     1      35.995  43.309  54.980  1.00  0.00    -0.328 OA
HETATM    2  C   UNL     1      35.806  42.543  52.622  1.00  0.00     0.168 C 
HETATM    3  C   UNL     1      35.108  43.221  53.834  1.00  0.00     0.166 C 
HETATM    4  C   UNL     1      37.235  43.092  52.404  1.00  0.00     0.172 C 
HETATM    5  C   UNL     1      38.022  43.212  53.707  1.00  0.00     0.197 C 
HETATM    6  C   UNL     1      37.211  44.001  54.735  1.00  0.00     0.263 C 
ENDROOT
BRANCH   3   7
HETATM    7  C   UNL     1      33.906  42.439  54.367  1.00  0.00     0.178 C 
BRANCH   7   8
HETATM    8  S   UNL     1      32.409  43.364  54.474  1.00  0.00     0.118 S 
HETATM    9  O   UNL     1      31.382  42.327  54.420  1.00  0.00    -0.594 OA
HETATM   10  O   UNL     1      32.468  44.245  53.314  1.00  0.00    -0.594 OA
HETATM   11  O   UNL     1      32.533  44.032  55.767  1.00  0.00    -0.594 OA
ENDBRANCH   7   8
ENDBRANCH   3   7
BRANCH   2  12
HETATM   12  O   UNL     1      35.102  42.751  51.395  1.00  0.00    -0.380 OA
HETATM   13  H   UNL     1      34.333  43.351  51.569  1.00  0.00     0.211 HD
ENDBRANCH   2  12
BRANCH   6  14
HETATM   14  O   UNL     1      36.968  45.329  54.332  1.00  0.00    -0.359 OA
HETATM   15  H   UNL     1      37.036  45.316  53.361  1.00  0.00     0.213 HD
ENDBRANCH   6  14
BRANCH   4  16
HETATM   16  O   UNL     1      37.981  42.232  51.515  1.00  0.00    -0.380 OA
HETATM   17  H   UNL     1      37.357  41.986  50.806  1.00  0.00     0.211 HD
ENDBRANCH   4  16
BRANCH   5  18
HETATM   18  O   UNL     1      38.311  41.885  54.207  1.00  0.00    -0.378 OA
HETATM   19  H   UNL     1      37.889  41.826  55.087  1.00  0.00     0.211 HD
ENDBRANCH   5  18
TORSDOF 6
ENDMDL
MODEL 10
REMARK VINA RESULT:    -4.117      2.857      5.800
REMARK INTER + INTRA:          -5.481
REMARK INTER:                  -4.990
REMARK INTRA:                  -0.491
REMARK UNBOUND:                -0.401
REMARK  6 active torsions:
REMARK  status: ('A' for Active; 'I' for Inactive)
REMARK    1  A    between atoms: S_1  and  C_15 
REMARK    2  A    between atoms: O_3  and  C_10 
REMARK    3  A    between atoms: O_4  and  C_12 
REMARK    4  A    between atoms: O_5  and  C_13 
REMARK    5  A    between atoms: O_6  and  C_14 
REMARK    6  A    between atoms: C_11  and  C_15 
ROOT
HETATM    1  O   UNL     1      44.080  39.249  44.372  1.00  0.00    -0.328 OA
HETATM    2  C   UNL     1      46.240  39.295  45.603  1.00  0.00     0.168 C 
HETATM    3  C   UNL     1      44.750  39.737  45.565  1.00  0.00     0.166 C 
HETATM    4  C   UNL     1      46.405  37.805  45.226  1.00  0.00     0.172 C 
HETATM    5  C   UNL     1      45.574  37.413  44.006  1.00  0.00     0.197 C 
HETATM    6  C   UNL     1      44.120  37.839  44.207  1.00  0.00     0.263 C 
ENDROOT
BRANCH   3   7
HETATM    7  C   UNL     1      44.561  41.254  45.490  1.00  0.00     0.178 C 
BRANCH   7   8
HETATM    8  S   UNL     1      44.695  42.093  47.034  1.00  0.00     0.118 S 
HETATM    9  O   UNL     1      43.698  43.155  46.913  1.00  0.00    -0.594 OA
HETATM   10  O   UNL     1      46.082  42.541  47.061  1.00  0.00    -0.594 OA
HETATM   11  O   UNL     1      44.360  41.050  48.000  1.00  0.00    -0.594 OA
ENDBRANCH   7   8
ENDBRANCH   3   7
BRANCH   2  12
HETATM   12  O   UNL     1      46.825  39.451  46.898  1.00  0.00    -0.380 OA
HETATM   13  H   UNL     1      46.163  39.176  47.580  1.00  0.00     0.211 HD
ENDBRANCH   2  12
BRANCH   6  14
HETATM   14  O   UNL     1      43.506  37.182  45.291  1.00  0.00    -0.359 OA
HETATM   15  H   UNL     1      43.256  36.306  44.948  1.00  0.00     0.213 HD
ENDBRANCH   6  14
BRANCH   4  16
HETATM   16  O   UNL     1      47.787  37.503  44.936  1.00  0.00    -0.380 OA
HETATM   17  H   UNL     1      48.059  36.853  45.610  1.00  0.00     0.211 HD
ENDBRANCH   4  16
BRANCH   5  18
HETATM   18  O   UNL     1      46.128  38.056  42.834  1.00  0.00    -0.378 OA
HETATM   19  H   UNL     1      45.502  37.882  42.103  1.00  0.00     0.211 HD
ENDBRANCH   5  18
TORSDOF 6
ENDMDL
