MODEL 1
REMARK VINA RESULT:    -5.259      0.000      0.000
REMARK INTER + INTRA:          -6.886
REMARK INTER:                  -6.489
REMARK INTRA:                  -0.397
REMARK UNBOUND:                -0.397
REMARK  6 active torsions:
REMARK  status: ('A' for Active; 'I' for Inactive)
REMARK    1  A    between atoms: S_1  and  C_15 
REMARK    2  A    between atoms: O_3  and  C_10 
REMARK    3  A    between atoms: O_4  and  C_12 
REMARK    4  A    between atoms: O_5  and  C_13 
REMARK    5  A    between atoms: O_6  and  C_14 
REMARK    6  A    between atoms: C_11  and  C_15 
ROOT
HETATM    1  O   UNL     1      42.502  47.057  36.680  1.00  0.00    -0.328 OA
HETATM    2  C   UNL     1      42.192  47.716  39.057  1.00  0.00     0.168 C 
HETATM    3  C   UNL     1      41.802  46.739  37.913  1.00  0.00     0.166 C 
HETATM    4  C   UNL     1      43.720  47.946  39.118  1.00  0.00     0.172 C 
HETATM    5  C   UNL     1      44.333  48.180  37.739  1.00  0.00     0.197 C 
HETATM    6  C   UNL     1      43.918  47.058  36.788  1.00  0.00     0.263 C 
ENDROOT
BRANCH   3   7
HETATM    7  C   UNL     1      40.326  46.813  37.519  1.00  0.00     0.178 C 
BRANCH   7   8
HETATM    8  S   UNL     1      39.303  45.578  38.252  1.00  0.00     0.118 S 
HETATM    9  O   UNL     1      38.906  44.763  37.106  1.00  0.00    -0.594 OA
HETATM   10  O   UNL     1      38.229  46.348  38.871  1.00  0.00    -0.594 OA
HETATM   11  O   UNL     1      40.210  44.917  39.186  1.00  0.00    -0.594 OA
ENDBRANCH   7   8
ENDBRANCH   3   7
BRANCH   2  12
HETATM   12  O   UNL     1      41.805  47.234  40.346  1.00  0.00    -0.380 OA
HETATM   13  H   UNL     1      41.164  47.876  40.745  1.00  0.00     0.211 HD
ENDBRANCH   2  12
BRANCH   6  14
HETATM   14  O   UNL     1      44.400  45.797  37.191  1.00  0.00    -0.359 OA
HETATM   15  H   UNL     1      43.629  45.204  37.142  1.00  0.00     0.213 HD
ENDBRANCH   6  14
BRANCH   4  16
HETATM   16  O   UNL     1      44.030  49.093  39.940  1.00  0.00    -0.380 OA
HETATM   17  H   UNL     1      43.237  49.242  40.489  1.00  0.00     0.211 HD
ENDBRANCH   4  16
BRANCH   5  18
HETATM   18  O   UNL     1      43.882  49.459  37.235  1.00  0.00    -0.378 OA
HETATM   19  H   UNL     1      44.675  50.030  37.188  1.00  0.00     0.211 HD
ENDBRANCH   5  18
TORSDOF 6
ENDMDL
MODEL 2
REMARK VINA RESULT:    -5.147      2.130      4.904
REMARK INTER + INTRA:          -6.748
REMARK INTER:                  -6.545
REMARK INTRA:                  -0.203
REMARK UNBOUND:                -0.397
REMARK  6 active torsions:
REMARK  status: ('A' for Active; 'I' for Inactive)
REMARK    1  A    between atoms: S_1  and  C_15 
REMARK    2  A    between atoms: O_3  and  C_10 
REMARK    3  A    between atoms: O_4  and  C_12 
REMARK    4  A    between atoms: O_5  and  C_13 
REMARK    5  A    between atoms: O_6  and  C_14 
REMARK    6  A    between atoms: C_11  and  C_15 
ROOT
HETATM    1  O   UNL     1      40.004  47.782  38.103  1.00  0.00    -0.328 OA
HETATM    2  C   UNL     1      41.874  46.377  37.259  1.00  0.00     0.168 C 
HETATM    3  C   UNL     1      41.388  47.400  38.324  1.00  0.00     0.166 C 
HETATM    4  C   UNL     1      40.833  45.260  37.020  1.00  0.00     0.172 C 
HETATM    5  C   UNL     1      39.410  45.801  36.894  1.00  0.00     0.197 C 
HETATM    6  C   UNL     1      39.086  46.698  38.089  1.00  0.00     0.263 C 
ENDROOT
BRANCH   3   7
HETATM    7  C   UNL     1      42.140  48.731  38.286  1.00  0.00     0.178 C 
BRANCH   7   8
HETATM    8  S   UNL     1      42.523  49.409  39.868  1.00  0.00     0.118 S 
HETATM    9  O   UNL     1      41.814  50.687  39.852  1.00  0.00    -0.594 OA
HETATM   10  O   UNL     1      43.978  49.504  39.857  1.00  0.00    -0.594 OA
HETATM   11  O   UNL     1      41.971  48.419  40.788  1.00  0.00    -0.594 OA
ENDBRANCH   7   8
ENDBRANCH   3   7
BRANCH   2  12
HETATM   12  O   UNL     1      43.087  45.724  37.638  1.00  0.00    -0.380 OA
HETATM   13  H   UNL     1      43.822  46.388  37.626  1.00  0.00     0.211 HD
ENDBRANCH   2  12
BRANCH   6  14
HETATM   14  O   UNL     1      39.103  46.000  39.313  1.00  0.00    -0.359 OA
HETATM   15  H   UNL     1      38.320  46.318  39.796  1.00  0.00     0.213 HD
ENDBRANCH   6  14
BRANCH   4  16
HETATM   16  O   UNL     1      41.136  44.530  35.811  1.00  0.00    -0.380 OA
HETATM   17  H   UNL     1      40.710  43.659  35.918  1.00  0.00     0.211 HD
ENDBRANCH   4  16
BRANCH   5  18
HETATM   18  O   UNL     1      39.299  46.549  35.660  1.00  0.00    -0.378 OA
HETATM   19  H   UNL     1      40.113  46.362  35.152  1.00  0.00     0.211 HD
ENDBRANCH   5  18
TORSDOF 6
ENDMDL
MODEL 3
REMARK VINA RESULT:    -5.082      2.168      5.072
REMARK INTER + INTRA:          -6.668
REMARK INTER:                  -6.251
REMARK INTRA:                  -0.417
REMARK UNBOUND:                -0.397
REMARK  6 active torsions:
REMARK  status: ('A' for Active; 'I' for Inactive)
REMARK    1  A    between atoms: S_1  and  C_15 
REMARK    2  A    between atoms: O_3  and  C_10 
REMARK    3  A    between atoms: O_4  and  C_12 
REMARK    4  A    between atoms: O_5  and  C_13 
REMARK    5  A    between atoms: O_6  and  C_14 
REMARK    6  A    between atoms: C_11  and  C_15 
ROOT
HETATM    1  O   UNL     1      40.869  46.123  38.999  1.00  0.00    -0.328 OA
HETATM    2  C   UNL     1      40.221  47.700  37.189  1.00  0.00     0.168 C 
HETATM    3  C   UNL     1      41.356  47.159  38.103  1.00  0.00     0.166 C 
HETATM    4  C   UNL     1      39.369  46.555  36.594  1.00  0.00     0.172 C 
HETATM    5  C   UNL     1      39.006  45.495  37.632  1.00  0.00     0.197 C 
HETATM    6  C   UNL     1      40.267  45.014  38.348  1.00  0.00     0.263 C 
ENDROOT
BRANCH   3   7
HETATM    7  C   UNL     1      41.937  48.211  39.049  1.00  0.00     0.178 C 
BRANCH   7   8
HETATM    8  S   UNL     1      43.550  48.779  38.622  1.00  0.00     0.118 S 
HETATM    9  O   UNL     1      44.308  47.536  38.493  1.00  0.00    -0.594 OA
HETATM   10  O   UNL     1      43.925  49.622  39.751  1.00  0.00    -0.594 OA
HETATM   11  O   UNL     1      43.323  49.487  37.366  1.00  0.00    -0.594 OA
ENDBRANCH   7   8
ENDBRANCH   3   7
BRANCH   2  12
HETATM   12  O   UNL     1      40.722  48.450  36.079  1.00  0.00    -0.380 OA
HETATM   13  H   UNL     1      40.055  49.140  35.836  1.00  0.00     0.211 HD
ENDBRANCH   2  12
BRANCH   6  14
HETATM   14  O   UNL     1      41.176  44.377  37.480  1.00  0.00    -0.359 OA
HETATM   15  H   UNL     1      41.966  44.205  38.023  1.00  0.00     0.213 HD
ENDBRANCH   6  14
BRANCH   4  16
HETATM   16  O   UNL     1      38.139  47.071  36.040  1.00  0.00    -0.380 OA
HETATM   17  H   UNL     1      38.306  48.018  35.872  1.00  0.00     0.211 HD
ENDBRANCH   4  16
BRANCH   5  18
HETATM   18  O   UNL     1      38.075  46.066  38.581  1.00  0.00    -0.378 OA
HETATM   19  H   UNL     1      37.756  46.901  38.184  1.00  0.00     0.211 HD
ENDBRANCH   5  18
TORSDOF 6
ENDMDL
MODEL 4
REMARK VINA RESULT:    -5.009      2.287      4.700
REMARK INTER + INTRA:          -6.577
REMARK INTER:                  -6.416
REMARK INTRA:                  -0.161
REMARK UNBOUND:                -0.397
REMARK  6 active torsions:
REMARK  status: ('A' for Active; 'I' for Inactive)
REMARK    1  A    between atoms: S_1  and  C_15 
REMARK    2  A    between atoms: O_3  and  C_10 
REMARK    3  A    between atoms: O_4  and  C_12 
REMARK    4  A    between atoms: O_5  and  C_13 
REMARK    5  A    between atoms: O_6  and  C_14 
REMARK    6  A    between atoms: C_11  and  C_15 
ROOT
HETATM    1  O   UNL     1      41.813  47.582  37.151  1.00  0.00    -0.328 OA
HETATM    2  C   UNL     1      40.172  46.263  38.473  1.00  0.00     0.168 C 
HETATM    3  C   UNL     1      40.976  47.586  38.338  1.00  0.00     0.166 C 
HETATM    4  C   UNL     1      39.538  45.838  37.129  1.00  0.00     0.172 C 
HETATM    5  C   UNL     1      40.508  45.968  35.956  1.00  0.00     0.197 C 
HETATM    6  C   UNL     1      41.112  47.372  35.934  1.00  0.00     0.263 C 
ENDROOT
BRANCH   3   7
HETATM    7  C   UNL     1      41.967  47.822  39.478  1.00  0.00     0.178 C 
BRANCH   7   8
HETATM    8  S   UNL     1      42.426  49.506  39.724  1.00  0.00     0.118 S 
HETATM    9  O   UNL     1      43.831  49.521  39.321  1.00  0.00    -0.594 OA
HETATM   10  O   UNL     1      42.183  49.723  41.145  1.00  0.00    -0.594 OA
HETATM   11  O   UNL     1      41.526  50.222  38.823  1.00  0.00    -0.594 OA
ENDBRANCH   7   8
ENDBRANCH   3   7
BRANCH   2  12
HETATM   12  O   UNL     1      39.098  46.366  39.411  1.00  0.00    -0.380 OA
HETATM   13  H   UNL     1      39.475  46.573  40.303  1.00  0.00     0.211 HD
ENDBRANCH   2  12
BRANCH   6  14
HETATM   14  O   UNL     1      40.147  48.376  35.722  1.00  0.00    -0.359 OA
HETATM   15  H   UNL     1      40.629  49.216  35.823  1.00  0.00     0.213 HD
ENDBRANCH   6  14
BRANCH   4  16
HETATM   16  O   UNL     1      39.096  44.464  37.186  1.00  0.00    -0.380 OA
HETATM   17  H   UNL     1      39.435  44.116  38.032  1.00  0.00     0.211 HD
ENDBRANCH   4  16
BRANCH   5  18
HETATM   18  O   UNL     1      41.550  44.974  36.094  1.00  0.00    -0.378 OA
HETATM   19  H   UNL     1      42.056  45.217  36.895  1.00  0.00     0.211 HD
ENDBRANCH   5  18
TORSDOF 6
ENDMDL
MODEL 5
REMARK VINA RESULT:    -4.879      2.525      4.817
REMARK INTER + INTRA:          -6.417
REMARK INTER:                  -6.028
REMARK INTRA:                  -0.388
REMARK UNBOUND:                -0.397
REMARK  6 active torsions:
REMARK  status: ('A' for Active; 'I' for Inactive)
REMARK    1  A    between atoms: S_1  and  C_15 
REMARK    2  A    between atoms: O_3  and  C_10 
REMARK    3  A    between atoms: O_4  and  C_12 
REMARK    4  A    between atoms: O_5  and  C_13 
REMARK    5  A    between atoms: O_6  and  C_14 
REMARK    6  A    between atoms: C_11  and  C_15 
ROOT
HETATM    1  O   UNL     1      39.019  47.057  37.224  1.00  0.00    -0.328 OA
HETATM    2  C   UNL     1      41.471  46.976  37.634  1.00  0.00     0.168 C 
HETATM    3  C   UNL     1      40.182  47.845  37.596  1.00  0.00     0.166 C 
HETATM    4  C   UNL     1      41.233  45.631  38.358  1.00  0.00     0.172 C 
HETATM    5  C   UNL     1      39.930  44.958  37.932  1.00  0.00     0.197 C 
HETATM    6  C   UNL     1      38.768  45.941  38.066  1.00  0.00     0.263 C 
ENDROOT
BRANCH   3   7
HETATM    7  C   UNL     1      40.219  48.953  36.542  1.00  0.00     0.178 C 
BRANCH   7   8
HETATM    8  S   UNL     1      40.833  50.502  37.118  1.00  0.00     0.118 S 
HETATM    9  O   UNL     1      39.699  51.399  36.905  1.00  0.00    -0.594 OA
HETATM   10  O   UNL     1      41.991  50.749  36.268  1.00  0.00    -0.594 OA
HETATM   11  O   UNL     1      41.138  50.228  38.520  1.00  0.00    -0.594 OA
ENDBRANCH   7   8
ENDBRANCH   3   7
BRANCH   2  12
HETATM   12  O   UNL     1      42.547  47.620  38.320  1.00  0.00    -0.380 OA
HETATM   13  H   UNL     1      43.025  46.944  38.863  1.00  0.00     0.211 HD
ENDBRANCH   2  12
BRANCH   6  14
HETATM   14  O   UNL     1      38.550  46.347  39.398  1.00  0.00    -0.359 OA
HETATM   15  H   UNL     1      38.593  45.528  39.922  1.00  0.00     0.213 HD
ENDBRANCH   6  14
BRANCH   4  16
HETATM   16  O   UNL     1      42.314  44.711  38.089  1.00  0.00    -0.380 OA
HETATM   17  H   UNL     1      41.888  43.846  37.937  1.00  0.00     0.211 HD
ENDBRANCH   4  16
BRANCH   5  18
HETATM   18  O   UNL     1      40.056  44.513  36.560  1.00  0.00    -0.378 OA
HETATM   19  H   UNL     1      39.843  43.559  36.561  1.00  0.00     0.211 HD
ENDBRANCH   5  18
TORSDOF 6
ENDMDL
MODEL 6
REMARK VINA RESULT:    -4.832     11.353     12.550
REMARK INTER + INTRA:          -6.359
REMARK INTER:                  -6.104
REMARK INTRA:                  -0.255
REMARK UNBOUND:                -0.397
REMARK  6 active torsions:
REMARK  status: ('A' for Active; 'I' for Inactive)
REMARK    1  A    between atoms: S_1  and  C_15 
REMARK    2  A    between atoms: O_3  and  C_10 
REMARK    3  A    between atoms: O_4  and  C_12 
REMARK    4  A    between atoms: O_5  and  C_13 
REMARK    5  A    between atoms: O_6  and  C_14 
REMARK    6  A    between atoms: C_11  and  C_15 
ROOT
HETATM    1  O   UNL     1      42.281  38.233  48.204  1.00  0.00    -0.328 OA
HETATM    2  C   UNL     1      44.154  39.139  46.842  1.00  0.00     0.168 C 
HETATM    3  C   UNL     1      42.679  39.302  47.304  1.00  0.00     0.166 C 
HETATM    4  C   UNL     1      45.088  38.786  48.022  1.00  0.00     0.172 C 
HETATM    5  C   UNL     1      44.501  37.710  48.934  1.00  0.00     0.197 C 
HETATM    6  C   UNL     1      43.090  38.106  49.365  1.00  0.00     0.263 C 
ENDROOT
BRANCH   3   7
HETATM    7  C   UNL     1      41.664  39.210  46.164  1.00  0.00     0.178 C 
BRANCH   7   8
HETATM    8  S   UNL     1      40.826  40.718  45.796  1.00  0.00     0.118 S 
HETATM    9  O   UNL     1      40.909  41.450  47.058  1.00  0.00    -0.594 OA
HETATM   10  O   UNL     1      39.488  40.281  45.416  1.00  0.00    -0.594 OA
HETATM   11  O   UNL     1      41.628  41.278  44.712  1.00  0.00    -0.594 OA
ENDBRANCH   7   8
ENDBRANCH   3   7
BRANCH   2  12
HETATM   12  O   UNL     1      44.679  40.330  46.253  1.00  0.00    -0.380 OA
HETATM   13  H   UNL     1      45.502  40.588  46.740  1.00  0.00     0.211 HD
ENDBRANCH   2  12
BRANCH   6  14
HETATM   14  O   UNL     1      43.067  39.286  50.134  1.00  0.00    -0.359 OA
HETATM   15  H   UNL     1      43.028  40.010  49.485  1.00  0.00     0.213 HD
ENDBRANCH   6  14
BRANCH   4  16
HETATM   16  O   UNL     1      46.362  38.308  47.538  1.00  0.00    -0.380 OA
HETATM   17  H   UNL     1      46.740  37.787  48.270  1.00  0.00     0.211 HD
ENDBRANCH   4  16
BRANCH   5  18
HETATM   18  O   UNL     1      44.474  36.452  48.219  1.00  0.00    -0.378 OA
HETATM   19  H   UNL     1      44.136  36.653  47.323  1.00  0.00     0.211 HD
ENDBRANCH   5  18
TORSDOF 6
ENDMDL
MODEL 7
REMARK VINA RESULT:    -4.608     11.800     13.172
REMARK INTER + INTRA:          -6.082
REMARK INTER:                  -5.646
REMARK INTRA:                  -0.436
REMARK UNBOUND:                -0.397
REMARK  6 active torsions:
REMARK  status: ('A' for Active; 'I' for Inactive)
REMARK    1  A    between atoms: S_1  and  C_15 
REMARK    2  A    between atoms: O_3  and  C_10 
REMARK    3  A    between atoms: O_4  and  C_12 
REMARK    4  A    between atoms: O_5  and  C_13 
REMARK    5  A    between atoms: O_6  and  C_14 
REMARK    6  A    between atoms: C_11  and  C_15 
ROOT
HETATM    1  O   UNL     1      42.569  37.160  46.876  1.00  0.00    -0.328 OA
HETATM    2  C   UNL     1      43.632  38.948  48.240  1.00  0.00     0.168 C 
HETATM    3  C   UNL     1      43.210  38.463  46.824  1.00  0.00     0.166 C 
HETATM    4  C   UNL     1      42.511  38.722  49.280  1.00  0.00     0.172 C 
HETATM    5  C   UNL     1      41.869  37.342  49.159  1.00  0.00     0.197 C 
HETATM    6  C   UNL     1      41.426  37.097  47.717  1.00  0.00     0.263 C 
ENDROOT
BRANCH   3   7
HETATM    7  C   UNL     1      44.388  38.248  45.872  1.00  0.00     0.178 C 
BRANCH   7   8
HETATM    8  S   UNL     1      44.696  39.583  44.763  1.00  0.00     0.118 S 
HETATM    9  O   UNL     1      43.349  40.016  44.396  1.00  0.00    -0.594 OA
HETATM   10  O   UNL     1      45.466  38.965  43.690  1.00  0.00    -0.594 OA
HETATM   11  O   UNL     1      45.435  40.530  45.593  1.00  0.00    -0.594 OA
ENDBRANCH   7   8
ENDBRANCH   3   7
BRANCH   2  12
HETATM   12  O   UNL     1      43.939  40.343  48.273  1.00  0.00    -0.380 OA
HETATM   13  H   UNL     1      44.058  40.619  49.216  1.00  0.00     0.211 HD
ENDBRANCH   2  12
BRANCH   6  14
HETATM   14  O   UNL     1      40.431  38.001  47.293  1.00  0.00    -0.359 OA
HETATM   15  H   UNL     1      40.749  38.877  47.573  1.00  0.00     0.213 HD
ENDBRANCH   6  14
BRANCH   4  16
HETATM   16  O   UNL     1      43.029  38.853  50.622  1.00  0.00    -0.380 OA
HETATM   17  H   UNL     1      43.747  39.510  50.561  1.00  0.00     0.211 HD
ENDBRANCH   4  16
BRANCH   5  18
HETATM   18  O   UNL     1      42.829  36.338  49.567  1.00  0.00    -0.378 OA
HETATM   19  H   UNL     1      43.583  36.824  49.957  1.00  0.00     0.211 HD
ENDBRANCH   5  18
TORSDOF 6
ENDMDL
MODEL 8
REMARK VINA RESULT:    -4.141     13.604     14.770
REMARK INTER + INTRA:          -5.506
REMARK INTER:                  -5.110
REMARK INTRA:                  -0.396
REMARK UNBOUND:                -0.397
REMARK  6 active torsions:
REMARK  status: ('A' for Active; 'I' for Inactive)
REMARK    1  A    between atoms: S_1  and  C_15 
REMARK    2  A    between atoms: O_3  and  C_10 
REMARK    3  A    between atoms: O_4  and  C_12 
REMARK    4  A    between atoms: O_5  and  C_13 
REMARK    5  A    between atoms: O_6  and  C_14 
REMARK    6  A    between atoms: C_11  and  C_15 
ROOT
HETATM    1  O   UNL     1      42.131  37.648  48.688  1.00  0.00    -0.328 OA
HETATM    2  C   UNL     1      42.301  35.192  48.333  1.00  0.00     0.168 C 
HETATM    3  C   UNL     1      41.552  36.511  47.993  1.00  0.00     0.166 C 
HETATM    4  C   UNL     1      43.836  35.377  48.286  1.00  0.00     0.172 C 
HETATM    5  C   UNL     1      44.293  36.659  48.980  1.00  0.00     0.197 C 
HETATM    6  C   UNL     1      43.513  37.854  48.433  1.00  0.00     0.263 C 
ENDROOT
BRANCH   3   7
HETATM    7  C   UNL     1      40.090  36.520  48.443  1.00  0.00     0.178 C 
BRANCH   7   8
HETATM    8  S   UNL     1      38.912  36.504  47.131  1.00  0.00     0.118 S 
HETATM    9  O   UNL     1      39.267  35.295  46.392  1.00  0.00    -0.594 OA
HETATM   10  O   UNL     1      39.162  37.758  46.432  1.00  0.00    -0.594 OA
HETATM   11  O   UNL     1      37.638  36.432  47.841  1.00  0.00    -0.594 OA
ENDBRANCH   7   8
ENDBRANCH   3   7
BRANCH   2  12
HETATM   12  O   UNL     1      41.994  34.136  47.420  1.00  0.00    -0.380 OA
HETATM   13  H   UNL     1      42.838  33.694  47.151  1.00  0.00     0.211 HD
ENDBRANCH   2  12
BRANCH   6  14
HETATM   14  O   UNL     1      43.751  38.078  47.062  1.00  0.00    -0.359 OA
HETATM   15  H   UNL     1      42.911  37.859  46.621  1.00  0.00     0.213 HD
ENDBRANCH   6  14
BRANCH   4  16
HETATM   16  O   UNL     1      44.502  34.267  48.925  1.00  0.00    -0.380 OA
HETATM   17  H   UNL     1      45.394  34.237  48.531  1.00  0.00     0.211 HD
ENDBRANCH   4  16
BRANCH   5  18
HETATM   18  O   UNL     1      44.076  36.526  50.404  1.00  0.00    -0.378 OA
HETATM   19  H   UNL     1      44.246  35.588  50.621  1.00  0.00     0.211 HD
ENDBRANCH   5  18
TORSDOF 6
ENDMDL
MODEL 9
REMARK VINA RESULT:    -4.111     10.171     11.458
REMARK INTER + INTRA:          -5.469
REMARK INTER:                  -5.045
REMARK INTRA:                  -0.424
REMARK UNBOUND:                -0.397
REMARK  6 active torsions:
REMARK  status: ('A' for Active; 'I' for Inactive)
REMARK    1  A    between atoms: S_1  and  C_15 
REMARK    2  A    between atoms: O_3  and  C_10 
REMARK    3  A    between atoms: O_4  and  C_12 
REMARK    4  A    between atoms: O_5  and  C_13 
REMARK    5  A    between atoms: O_6  and  C_14 
REMARK    6  A    between atoms: C_11  and  C_15 
ROOT
HETATM    1  O   UNL     1      42.290  38.382  45.533  1.00  0.00    -0.328 OA
HETATM    2  C   UNL     1      44.538  39.288  46.089  1.00  0.00     0.168 C 
HETATM    3  C   UNL     1      43.231  39.456  45.265  1.00  0.00     0.166 C 
HETATM    4  C   UNL     1      44.243  38.922  47.562  1.00  0.00     0.172 C 
HETATM    5  C   UNL     1      43.171  37.842  47.694  1.00  0.00     0.197 C 
HETATM    6  C   UNL     1      41.928  38.242  46.900  1.00  0.00     0.263 C 
ENDROOT
BRANCH   3   7
HETATM    7  C   UNL     1      43.445  39.377  43.752  1.00  0.00     0.178 C 
BRANCH   7   8
HETATM    8  S   UNL     1      43.441  40.934  42.923  1.00  0.00     0.118 S 
HETATM    9  O   UNL     1      44.674  41.557  43.399  1.00  0.00    -0.594 OA
HETATM   10  O   UNL     1      42.208  41.562  43.382  1.00  0.00    -0.594 OA
HETATM   11  O   UNL     1      43.456  40.550  41.514  1.00  0.00    -0.594 OA
ENDBRANCH   7   8
ENDBRANCH   3   7
BRANCH   2  12
HETATM   12  O   UNL     1      45.325  40.481  46.120  1.00  0.00    -0.380 OA
HETATM   13  H   UNL     1      44.906  41.121  46.749  1.00  0.00     0.211 HD
ENDBRANCH   2  12
BRANCH   6  14
HETATM   14  O   UNL     1      41.324  39.417  47.390  1.00  0.00    -0.359 OA
HETATM   15  H   UNL     1      40.517  39.116  47.844  1.00  0.00     0.213 HD
ENDBRANCH   6  14
BRANCH   4  16
HETATM   16  O   UNL     1      45.437  38.441  48.216  1.00  0.00    -0.380 OA
HETATM   17  H   UNL     1      45.972  39.236  48.400  1.00  0.00     0.211 HD
ENDBRANCH   4  16
BRANCH   5  18
HETATM   18  O   UNL     1      43.702  36.589  47.201  1.00  0.00    -0.378 OA
HETATM   19  H   UNL     1      43.230  35.882  47.685  1.00  0.00     0.211 HD
ENDBRANCH   5  18
TORSDOF 6
ENDMDL
MODEL 10
REMARK VINA RESULT:    -4.059      8.334      9.328
REMARK INTER + INTRA:          -5.405
REMARK INTER:                  -4.970
REMARK INTRA:                  -0.435
REMARK UNBOUND:                -0.397
REMARK  6 active torsions:
REMARK  status: ('A' for Active; 'I' for Inactive)
REMARK    1  A    between atoms: S_1  and  C_15 
REMARK    2  A    between atoms: O_3  and  C_10 
REMARK    3  A    between atoms: O_4  and  C_12 
REMARK    4  A    between atoms: O_5  and  C_13 
REMARK    5  A    between atoms: O_6  and  C_14 
REMARK    6  A    between atoms: C_11  and  C_15 
ROOT
HETATM    1  O   UNL     1      45.468  39.389  42.414  1.00  0.00    -0.328 OA
HETATM    2  C   UNL     1      43.269  40.539  42.573  1.00  0.00     0.168 C 
HETATM    3  C   UNL     1      44.517  40.000  43.327  1.00  0.00     0.166 C 
HETATM    4  C   UNL     1      43.662  41.314  41.294  1.00  0.00     0.172 C 
HETATM    5  C   UNL     1      44.734  40.594  40.478  1.00  0.00     0.197 C 
HETATM    6  C   UNL     1      45.922  40.244  41.374  1.00  0.00     0.263 C 
ENDROOT
BRANCH   3   7
HETATM    7  C   UNL     1      44.200  38.881  44.320  1.00  0.00     0.178 C 
BRANCH   7   8
HETATM    8  S   UNL     1      44.026  39.406  45.994  1.00  0.00     0.118 S 
HETATM    9  O   UNL     1      44.219  38.166  46.743  1.00  0.00    -0.594 OA
HETATM   10  O   UNL     1      42.677  39.958  46.041  1.00  0.00    -0.594 OA
HETATM   11  O   UNL     1      45.102  40.381  46.142  1.00  0.00    -0.594 OA
ENDBRANCH   7   8
ENDBRANCH   3   7
BRANCH   2  12
HETATM   12  O   UNL     1      42.493  41.438  43.368  1.00  0.00    -0.380 OA
HETATM   13  H   UNL     1      42.532  41.141  44.312  1.00  0.00     0.211 HD
ENDBRANCH   2  12
BRANCH   6  14
HETATM   14  O   UNL     1      46.565  41.384  41.895  1.00  0.00    -0.359 OA
HETATM   15  H   UNL     1      45.845  41.996  42.127  1.00  0.00     0.213 HD
ENDBRANCH   6  14
BRANCH   4  16
HETATM   16  O   UNL     1      42.512  41.506  40.442  1.00  0.00    -0.380 OA
HETATM   17  H   UNL     1      41.888  42.045  40.963  1.00  0.00     0.211 HD
ENDBRANCH   4  16
BRANCH   5  18
HETATM   18  O   UNL     1      44.163  39.393  39.907  1.00  0.00    -0.378 OA
HETATM   19  H   UNL     1      43.937  38.812  40.661  1.00  0.00     0.211 HD
ENDBRANCH   5  18
TORSDOF 6
ENDMDL
