MODEL 1
REMARK VINA RESULT:    -5.234      0.000      0.000
REMARK INTER + INTRA:          -6.860
REMARK INTER:                  -6.457
REMARK INTRA:                  -0.402
REMARK UNBOUND:                -0.402
REMARK  6 active torsions:
REMARK  status: ('A' for Active; 'I' for Inactive)
REMARK    1  A    between atoms: S_1  and  C_15 
REMARK    2  A    between atoms: O_3  and  C_10 
REMARK    3  A    between atoms: O_4  and  C_12 
REMARK    4  A    between atoms: O_5  and  C_13 
REMARK    5  A    between atoms: O_6  and  C_14 
REMARK    6  A    between atoms: C_11  and  C_15 
ROOT
HETATM    1  O   UNL     1      42.575  47.049  36.662  1.00  0.00    -0.328 OA
HETATM    2  C   UNL     1      42.301  47.695  39.048  1.00  0.00     0.168 C 
HETATM    3  C   UNL     1      41.922  46.702  37.913  1.00  0.00     0.166 C 
HETATM    4  C   UNL     1      43.818  47.989  39.069  1.00  0.00     0.172 C 
HETATM    5  C   UNL     1      44.385  48.248  37.674  1.00  0.00     0.197 C 
HETATM    6  C   UNL     1      43.992  47.110  36.733  1.00  0.00     0.263 C 
ENDROOT
BRANCH   3   7
HETATM    7  C   UNL     1      40.434  46.713  37.559  1.00  0.00     0.178 C 
BRANCH   7   8
HETATM    8  S   UNL     1      39.475  45.467  38.356  1.00  0.00     0.118 S 
HETATM    9  O   UNL     1      38.902  44.730  37.232  1.00  0.00    -0.594 OA
HETATM   10  O   UNL     1      38.520  46.229  39.152  1.00  0.00    -0.594 OA
HETATM   11  O   UNL     1      40.474  44.729  39.123  1.00  0.00    -0.594 OA
ENDBRANCH   7   8
ENDBRANCH   3   7
BRANCH   2  12
HETATM   12  O   UNL     1      41.968  47.197  40.346  1.00  0.00    -0.380 OA
HETATM   13  H   UNL     1      42.553  46.424  40.549  1.00  0.00     0.211 HD
ENDBRANCH   2  12
BRANCH   6  14
HETATM   14  O   UNL     1      44.537  45.870  37.123  1.00  0.00    -0.359 OA
HETATM   15  H   UNL     1      44.501  45.872  38.095  1.00  0.00     0.213 HD
ENDBRANCH   6  14
BRANCH   4  16
HETATM   16  O   UNL     1      44.101  49.148  39.883  1.00  0.00    -0.380 OA
HETATM   17  H   UNL     1      43.701  49.902  39.410  1.00  0.00     0.211 HD
ENDBRANCH   4  16
BRANCH   5  18
HETATM   18  O   UNL     1      43.867  49.507  37.183  1.00  0.00    -0.378 OA
HETATM   19  H   UNL     1      42.933  49.345  36.942  1.00  0.00     0.211 HD
ENDBRANCH   5  18
TORSDOF 6
ENDMDL
MODEL 2
REMARK VINA RESULT:    -5.177      2.140      4.852
REMARK INTER + INTRA:          -6.789
REMARK INTER:                  -6.583
REMARK INTRA:                  -0.206
REMARK UNBOUND:                -0.402
REMARK  6 active torsions:
REMARK  status: ('A' for Active; 'I' for Inactive)
REMARK    1  A    between atoms: S_1  and  C_15 
REMARK    2  A    between atoms: O_3  and  C_10 
REMARK    3  A    between atoms: O_4  and  C_12 
REMARK    4  A    between atoms: O_5  and  C_13 
REMARK    5  A    between atoms: O_6  and  C_14 
REMARK    6  A    between atoms: C_11  and  C_15 
ROOT
HETATM    1  O   UNL     1      40.184  47.810  38.082  1.00  0.00    -0.328 OA
HETATM    2  C   UNL     1      41.919  46.262  37.200  1.00  0.00     0.168 C 
HETATM    3  C   UNL     1      41.529  47.302  38.288  1.00  0.00     0.166 C 
HETATM    4  C   UNL     1      40.781  45.246  36.946  1.00  0.00     0.172 C 
HETATM    5  C   UNL     1      39.412  45.914  36.839  1.00  0.00     0.197 C 
HETATM    6  C   UNL     1      39.173  46.811  38.052  1.00  0.00     0.263 C 
ENDROOT
BRANCH   3   7
HETATM    7  C   UNL     1      42.397  48.561  38.272  1.00  0.00     0.178 C 
BRANCH   7   8
HETATM    8  S   UNL     1      42.598  49.340  39.841  1.00  0.00     0.118 S 
HETATM    9  O   UNL     1      42.052  48.351  40.767  1.00  0.00    -0.594 OA
HETATM   10  O   UNL     1      41.823  50.569  39.714  1.00  0.00    -0.594 OA
HETATM   11  O   UNL     1      44.044  49.524  39.928  1.00  0.00    -0.594 OA
ENDBRANCH   7   8
ENDBRANCH   3   7
BRANCH   2  12
HETATM   12  O   UNL     1      43.071  45.496  37.560  1.00  0.00    -0.380 OA
HETATM   13  H   UNL     1      43.853  46.102  37.605  1.00  0.00     0.211 HD
ENDBRANCH   2  12
BRANCH   6  14
HETATM   14  O   UNL     1      39.133  46.090  39.262  1.00  0.00    -0.359 OA
HETATM   15  H   UNL     1      39.292  46.753  39.957  1.00  0.00     0.213 HD
ENDBRANCH   6  14
BRANCH   4  16
HETATM   16  O   UNL     1      41.015  44.517  35.721  1.00  0.00    -0.380 OA
HETATM   17  H   UNL     1      41.704  43.861  35.936  1.00  0.00     0.211 HD
ENDBRANCH   4  16
BRANCH   5  18
HETATM   18  O   UNL     1      39.363  46.693  35.620  1.00  0.00    -0.378 OA
HETATM   19  H   UNL     1      38.879  46.149  34.967  1.00  0.00     0.211 HD
ENDBRANCH   5  18
TORSDOF 6
ENDMDL
MODEL 3
REMARK VINA RESULT:    -5.084      2.188      5.082
REMARK INTER + INTRA:          -6.676
REMARK INTER:                  -6.255
REMARK INTRA:                  -0.421
REMARK UNBOUND:                -0.402
REMARK  6 active torsions:
REMARK  status: ('A' for Active; 'I' for Inactive)
REMARK    1  A    between atoms: S_1  and  C_15 
REMARK    2  A    between atoms: O_3  and  C_10 
REMARK    3  A    between atoms: O_4  and  C_12 
REMARK    4  A    between atoms: O_5  and  C_13 
REMARK    5  A    between atoms: O_6  and  C_14 
REMARK    6  A    between atoms: C_11  and  C_15 
ROOT
HETATM    1  O   UNL     1      40.836  46.099  39.020  1.00  0.00    -0.328 OA
HETATM    2  C   UNL     1      40.257  47.701  37.209  1.00  0.00     0.168 C 
HETATM    3  C   UNL     1      41.362  47.129  38.141  1.00  0.00     0.166 C 
HETATM    4  C   UNL     1      39.393  46.578  36.590  1.00  0.00     0.172 C 
HETATM    5  C   UNL     1      38.987  45.519  37.613  1.00  0.00     0.197 C 
HETATM    6  C   UNL     1      40.223  45.006  38.350  1.00  0.00     0.263 C 
ENDROOT
BRANCH   3   7
HETATM    7  C   UNL     1      41.947  48.162  39.106  1.00  0.00     0.178 C 
BRANCH   7   8
HETATM    8  S   UNL     1      43.559  48.738  38.684  1.00  0.00     0.118 S 
HETATM    9  O   UNL     1      43.320  49.507  37.466  1.00  0.00    -0.594 OA
HETATM   10  O   UNL     1      44.324  47.509  38.506  1.00  0.00    -0.594 OA
HETATM   11  O   UNL     1      43.932  49.538  39.847  1.00  0.00    -0.594 OA
ENDBRANCH   7   8
ENDBRANCH   3   7
BRANCH   2  12
HETATM   12  O   UNL     1      40.795  48.446  36.114  1.00  0.00    -0.380 OA
HETATM   13  H   UNL     1      41.563  48.979  36.441  1.00  0.00     0.211 HD
ENDBRANCH   2  12
BRANCH   6  14
HETATM   14  O   UNL     1      41.136  44.356  37.496  1.00  0.00    -0.359 OA
HETATM   15  H   UNL     1      41.550  43.667  38.044  1.00  0.00     0.213 HD
ENDBRANCH   6  14
BRANCH   4  16
HETATM   16  O   UNL     1      38.185  47.124  36.015  1.00  0.00    -0.380 OA
HETATM   17  H   UNL     1      37.498  46.447  36.163  1.00  0.00     0.211 HD
ENDBRANCH   4  16
BRANCH   5  18
HETATM   18  O   UNL     1      38.050  46.103  38.548  1.00  0.00    -0.378 OA
HETATM   19  H   UNL     1      38.525  46.835  38.990  1.00  0.00     0.211 HD
ENDBRANCH   5  18
TORSDOF 6
ENDMDL
MODEL 4
REMARK VINA RESULT:    -4.969     12.311     13.654
REMARK INTER + INTRA:          -6.534
REMARK INTER:                  -6.149
REMARK INTRA:                  -0.385
REMARK UNBOUND:                -0.402
REMARK  6 active torsions:
REMARK  status: ('A' for Active; 'I' for Inactive)
REMARK    1  A    between atoms: S_1  and  C_15 
REMARK    2  A    between atoms: O_3  and  C_10 
REMARK    3  A    between atoms: O_4  and  C_12 
REMARK    4  A    between atoms: O_5  and  C_13 
REMARK    5  A    between atoms: O_6  and  C_14 
REMARK    6  A    between atoms: C_11  and  C_15 
ROOT
HETATM    1  O   UNL     1      43.589  36.706  47.646  1.00  0.00    -0.328 OA
HETATM    2  C   UNL     1      43.722  38.967  48.675  1.00  0.00     0.168 C 
HETATM    3  C   UNL     1      43.596  38.132  47.369  1.00  0.00     0.166 C 
HETATM    4  C   UNL     1      42.783  38.439  49.784  1.00  0.00     0.172 C 
HETATM    5  C   UNL     1      42.813  36.916  49.903  1.00  0.00     0.197 C 
HETATM    6  C   UNL     1      42.564  36.282  48.535  1.00  0.00     0.263 C 
ENDROOT
BRANCH   3   7
HETATM    7  C   UNL     1      44.777  38.308  46.413  1.00  0.00     0.178 C 
BRANCH   7   8
HETATM    8  S   UNL     1      44.546  39.537  45.170  1.00  0.00     0.118 S 
HETATM    9  O   UNL     1      44.903  38.829  43.943  1.00  0.00    -0.594 OA
HETATM   10  O   UNL     1      45.463  40.600  45.566  1.00  0.00    -0.594 OA
HETATM   11  O   UNL     1      43.127  39.862  45.295  1.00  0.00    -0.594 OA
ENDBRANCH   7   8
ENDBRANCH   3   7
BRANCH   2  12
HETATM   12  O   UNL     1      43.386  40.342  48.482  1.00  0.00    -0.380 OA
HETATM   13  H   UNL     1      42.947  40.680  49.303  1.00  0.00     0.211 HD
ENDBRANCH   2  12
BRANCH   6  14
HETATM   14  O   UNL     1      41.288  36.582  48.020  1.00  0.00    -0.359 OA
HETATM   15  H   UNL     1      40.763  36.861  48.791  1.00  0.00     0.213 HD
ENDBRANCH   6  14
BRANCH   4  16
HETATM   16  O   UNL     1      43.151  38.990  51.068  1.00  0.00    -0.380 OA
HETATM   17  H   UNL     1      44.082  38.732  51.204  1.00  0.00     0.211 HD
ENDBRANCH   4  16
BRANCH   5  18
HETATM   18  O   UNL     1      44.103  36.510  50.419  1.00  0.00    -0.378 OA
HETATM   19  H   UNL     1      44.003  36.451  51.390  1.00  0.00     0.211 HD
ENDBRANCH   5  18
TORSDOF 6
ENDMDL
MODEL 5
REMARK VINA RESULT:    -4.541      8.889      9.739
REMARK INTER + INTRA:          -6.005
REMARK INTER:                  -5.516
REMARK INTRA:                  -0.488
REMARK UNBOUND:                -0.402
REMARK  6 active torsions:
REMARK  status: ('A' for Active; 'I' for Inactive)
REMARK    1  A    between atoms: S_1  and  C_15 
REMARK    2  A    between atoms: O_3  and  C_10 
REMARK    3  A    between atoms: O_4  and  C_12 
REMARK    4  A    between atoms: O_5  and  C_13 
REMARK    5  A    between atoms: O_6  and  C_14 
REMARK    6  A    between atoms: C_11  and  C_15 
ROOT
HETATM    1  O   UNL     1      43.251  39.972  42.635  1.00  0.00    -0.328 OA
HETATM    2  C   UNL     1      44.908  40.556  44.395  1.00  0.00     0.168 C 
HETATM    3  C   UNL     1      44.009  39.457  43.762  1.00  0.00     0.166 C 
HETATM    4  C   UNL     1      45.657  41.374  43.318  1.00  0.00     0.172 C 
HETATM    5  C   UNL     1      44.755  41.772  42.151  1.00  0.00     0.197 C 
HETATM    6  C   UNL     1      44.042  40.538  41.599  1.00  0.00     0.263 C 
ENDROOT
BRANCH   3   7
HETATM    7  C   UNL     1      42.932  38.924  44.708  1.00  0.00     0.178 C 
BRANCH   7   8
HETATM    8  S   UNL     1      43.496  37.722  45.869  1.00  0.00     0.118 S 
HETATM    9  O   UNL     1      43.768  38.525  47.059  1.00  0.00    -0.594 OA
HETATM   10  O   UNL     1      44.671  37.148  45.223  1.00  0.00    -0.594 OA
HETATM   11  O   UNL     1      42.351  36.824  45.987  1.00  0.00    -0.594 OA
ENDBRANCH   7   8
ENDBRANCH   3   7
BRANCH   2  12
HETATM   12  O   UNL     1      45.909  40.015  45.260  1.00  0.00    -0.380 OA
HETATM   13  H   UNL     1      46.599  40.708  45.418  1.00  0.00     0.211 HD
ENDBRANCH   2  12
BRANCH   6  14
HETATM   14  O   UNL     1      44.933  39.589  41.063  1.00  0.00    -0.359 OA
HETATM   15  H   UNL     1      45.489  40.088  40.438  1.00  0.00     0.213 HD
ENDBRANCH   6  14
BRANCH   4  16
HETATM   16  O   UNL     1      46.205  42.583  43.886  1.00  0.00    -0.380 OA
HETATM   17  H   UNL     1      45.717  43.314  43.462  1.00  0.00     0.211 HD
ENDBRANCH   4  16
BRANCH   5  18
HETATM   18  O   UNL     1      43.791  42.746  42.614  1.00  0.00    -0.378 OA
HETATM   19  H   UNL     1      43.000  42.638  42.049  1.00  0.00     0.211 HD
ENDBRANCH   5  18
TORSDOF 6
ENDMDL
MODEL 6
REMARK VINA RESULT:    -4.523      8.373      9.347
REMARK INTER + INTRA:          -5.983
REMARK INTER:                  -5.561
REMARK INTRA:                  -0.422
REMARK UNBOUND:                -0.402
REMARK  6 active torsions:
REMARK  status: ('A' for Active; 'I' for Inactive)
REMARK    1  A    between atoms: S_1  and  C_15 
REMARK    2  A    between atoms: O_3  and  C_10 
REMARK    3  A    between atoms: O_4  and  C_12 
REMARK    4  A    between atoms: O_5  and  C_13 
REMARK    5  A    between atoms: O_6  and  C_14 
REMARK    6  A    between atoms: C_11  and  C_15 
ROOT
HETATM    1  O   UNL     1      44.264  38.561  43.552  1.00  0.00    -0.328 OA
HETATM    2  C   UNL     1      43.291  40.622  42.556  1.00  0.00     0.168 C 
HETATM    3  C   UNL     1      43.464  39.743  43.827  1.00  0.00     0.166 C 
HETATM    4  C   UNL     1      44.626  40.799  41.797  1.00  0.00     0.172 C 
HETATM    5  C   UNL     1      45.401  39.490  41.660  1.00  0.00     0.197 C 
HETATM    6  C   UNL     1      45.557  38.832  43.031  1.00  0.00     0.263 C 
ENDROOT
BRANCH   3   7
HETATM    7  C   UNL     1      42.149  39.172  44.362  1.00  0.00     0.178 C 
BRANCH   7   8
HETATM    8  S   UNL     1      41.480  40.031  45.749  1.00  0.00     0.118 S 
HETATM    9  O   UNL     1      40.357  39.184  46.143  1.00  0.00    -0.594 OA
HETATM   10  O   UNL     1      41.117  41.333  45.202  1.00  0.00    -0.594 OA
HETATM   11  O   UNL     1      42.595  40.042  46.692  1.00  0.00    -0.594 OA
ENDBRANCH   7   8
ENDBRANCH   3   7
BRANCH   2  12
HETATM   12  O   UNL     1      42.820  41.937  42.859  1.00  0.00    -0.380 OA
HETATM   13  H   UNL     1      41.907  41.868  43.235  1.00  0.00     0.211 HD
ENDBRANCH   2  12
BRANCH   6  14
HETATM   14  O   UNL     1      46.315  39.612  43.926  1.00  0.00    -0.359 OA
HETATM   15  H   UNL     1      45.786  39.645  44.743  1.00  0.00     0.213 HD
ENDBRANCH   6  14
BRANCH   4  16
HETATM   16  O   UNL     1      44.391  41.315  40.468  1.00  0.00    -0.380 OA
HETATM   17  H   UNL     1      45.065  40.894  39.903  1.00  0.00     0.211 HD
ENDBRANCH   4  16
BRANCH   5  18
HETATM   18  O   UNL     1      44.686  38.612  40.759  1.00  0.00    -0.378 OA
HETATM   19  H   UNL     1      43.859  39.077  40.522  1.00  0.00     0.211 HD
ENDBRANCH   5  18
TORSDOF 6
ENDMDL
MODEL 7
REMARK VINA RESULT:    -4.334     12.691     13.761
REMARK INTER + INTRA:          -5.750
REMARK INTER:                  -5.294
REMARK INTRA:                  -0.456
REMARK UNBOUND:                -0.402
REMARK  6 active torsions:
REMARK  status: ('A' for Active; 'I' for Inactive)
REMARK    1  A    between atoms: S_1  and  C_15 
REMARK    2  A    between atoms: O_3  and  C_10 
REMARK    3  A    between atoms: O_4  and  C_12 
REMARK    4  A    between atoms: O_5  and  C_13 
REMARK    5  A    between atoms: O_6  and  C_14 
REMARK    6  A    between atoms: C_11  and  C_15 
ROOT
HETATM    1  O   UNL     1      42.056  38.777  47.813  1.00  0.00    -0.328 OA
HETATM    2  C   UNL     1      43.888  37.126  48.127  1.00  0.00     0.168 C 
HETATM    3  C   UNL     1      42.467  37.406  47.564  1.00  0.00     0.166 C 
HETATM    4  C   UNL     1      44.877  38.263  47.780  1.00  0.00     0.172 C 
HETATM    5  C   UNL     1      44.278  39.650  48.008  1.00  0.00     0.197 C 
HETATM    6  C   UNL     1      42.934  39.762  47.288  1.00  0.00     0.263 C 
ENDROOT
BRANCH   3   7
HETATM    7  C   UNL     1      41.368  36.574  48.228  1.00  0.00     0.178 C 
BRANCH   7   8
HETATM    8  S   UNL     1      41.169  34.951  47.568  1.00  0.00     0.118 S 
HETATM    9  O   UNL     1      41.585  35.114  46.177  1.00  0.00    -0.594 OA
HETATM   10  O   UNL     1      39.752  34.673  47.767  1.00  0.00    -0.594 OA
HETATM   11  O   UNL     1      42.079  34.155  48.387  1.00  0.00    -0.594 OA
ENDBRANCH   7   8
ENDBRANCH   3   7
BRANCH   2  12
HETATM   12  O   UNL     1      44.458  35.923  47.606  1.00  0.00    -0.380 OA
HETATM   13  H   UNL     1      45.098  35.562  48.270  1.00  0.00     0.211 HD
ENDBRANCH   2  12
BRANCH   6  14
HETATM   14  O   UNL     1      43.056  39.643  45.890  1.00  0.00    -0.359 OA
HETATM   15  H   UNL     1      43.625  38.866  45.750  1.00  0.00     0.213 HD
ENDBRANCH   6  14
BRANCH   4  16
HETATM   16  O   UNL     1      46.073  38.161  48.583  1.00  0.00    -0.380 OA
HETATM   17  H   UNL     1      45.981  37.329  49.083  1.00  0.00     0.211 HD
ENDBRANCH   4  16
BRANCH   5  18
HETATM   18  O   UNL     1      44.106  39.860  49.430  1.00  0.00    -0.378 OA
HETATM   19  H   UNL     1      43.401  40.531  49.524  1.00  0.00     0.211 HD
ENDBRANCH   5  18
TORSDOF 6
ENDMDL
MODEL 8
REMARK VINA RESULT:    -4.274     12.292     13.390
REMARK INTER + INTRA:          -5.676
REMARK INTER:                  -5.427
REMARK INTRA:                  -0.249
REMARK UNBOUND:                -0.402
REMARK  6 active torsions:
REMARK  status: ('A' for Active; 'I' for Inactive)
REMARK    1  A    between atoms: S_1  and  C_15 
REMARK    2  A    between atoms: O_3  and  C_10 
REMARK    3  A    between atoms: O_4  and  C_12 
REMARK    4  A    between atoms: O_5  and  C_13 
REMARK    5  A    between atoms: O_6  and  C_14 
REMARK    6  A    between atoms: C_11  and  C_15 
ROOT
HETATM    1  O   UNL     1      43.004  36.576  47.939  1.00  0.00    -0.328 OA
HETATM    2  C   UNL     1      42.523  38.948  47.366  1.00  0.00     0.168 C 
HETATM    3  C   UNL     1      41.947  37.541  47.690  1.00  0.00     0.166 C 
HETATM    4  C   UNL     1      43.659  39.339  48.339  1.00  0.00     0.172 C 
HETATM    5  C   UNL     1      44.648  38.198  48.575  1.00  0.00     0.197 C 
HETATM    6  C   UNL     1      43.895  36.933  48.986  1.00  0.00     0.263 C 
ENDROOT
BRANCH   3   7
HETATM    7  C   UNL     1      41.157  36.921  46.536  1.00  0.00     0.178 C 
BRANCH   7   8
HETATM    8  S   UNL     1      39.427  36.749  46.832  1.00  0.00     0.118 S 
HETATM    9  O   UNL     1      38.863  37.897  46.126  1.00  0.00    -0.594 OA
HETATM   10  O   UNL     1      39.322  36.798  48.285  1.00  0.00    -0.594 OA
HETATM   11  O   UNL     1      39.122  35.454  46.230  1.00  0.00    -0.594 OA
ENDBRANCH   7   8
ENDBRANCH   3   7
BRANCH   2  12
HETATM   12  O   UNL     1      41.538  39.979  47.461  1.00  0.00    -0.380 OA
HETATM   13  H   UNL     1      41.381  40.351  46.556  1.00  0.00     0.211 HD
ENDBRANCH   2  12
BRANCH   6  14
HETATM   14  O   UNL     1      43.211  37.081  50.209  1.00  0.00    -0.359 OA
HETATM   15  H   UNL     1      43.775  36.641  50.870  1.00  0.00     0.213 HD
ENDBRANCH   6  14
BRANCH   4  16
HETATM   16  O   UNL     1      44.401  40.468  47.828  1.00  0.00    -0.380 OA
HETATM   17  H   UNL     1      43.795  40.920  47.212  1.00  0.00     0.211 HD
ENDBRANCH   4  16
BRANCH   5  18
HETATM   18  O   UNL     1      45.396  37.965  47.358  1.00  0.00    -0.378 OA
HETATM   19  H   UNL     1      46.263  37.606  47.634  1.00  0.00     0.211 HD
ENDBRANCH   5  18
TORSDOF 6
ENDMDL
MODEL 9
REMARK VINA RESULT:    -4.235      9.890     11.164
REMARK INTER + INTRA:          -5.628
REMARK INTER:                  -5.206
REMARK INTRA:                  -0.422
REMARK UNBOUND:                -0.402
REMARK  6 active torsions:
REMARK  status: ('A' for Active; 'I' for Inactive)
REMARK    1  A    between atoms: S_1  and  C_15 
REMARK    2  A    between atoms: O_3  and  C_10 
REMARK    3  A    between atoms: O_4  and  C_12 
REMARK    4  A    between atoms: O_5  and  C_13 
REMARK    5  A    between atoms: O_6  and  C_14 
REMARK    6  A    between atoms: C_11  and  C_15 
ROOT
HETATM    1  O   UNL     1      42.579  38.160  45.367  1.00  0.00    -0.328 OA
HETATM    2  C   UNL     1      44.767  39.342  45.428  1.00  0.00     0.168 C 
HETATM    3  C   UNL     1      43.301  39.336  44.911  1.00  0.00     0.166 C 
HETATM    4  C   UNL     1      44.847  38.967  46.926  1.00  0.00     0.172 C 
HETATM    5  C   UNL     1      43.969  37.767  47.278  1.00  0.00     0.197 C 
HETATM    6  C   UNL     1      42.544  38.000  46.778  1.00  0.00     0.263 C 
ENDROOT
BRANCH   3   7
HETATM    7  C   UNL     1      43.188  39.260  43.387  1.00  0.00     0.178 C 
BRANCH   7   8
HETATM    8  S   UNL     1      42.936  40.810  42.586  1.00  0.00     0.118 S 
HETATM    9  O   UNL     1      42.283  40.426  41.336  1.00  0.00    -0.594 OA
HETATM   10  O   UNL     1      44.285  41.345  42.444  1.00  0.00    -0.594 OA
HETATM   11  O   UNL     1      42.079  41.526  43.527  1.00  0.00    -0.594 OA
ENDBRANCH   7   8
ENDBRANCH   3   7
BRANCH   2  12
HETATM   12  O   UNL     1      45.389  40.622  45.299  1.00  0.00    -0.380 OA
HETATM   13  H   UNL     1      46.115  40.691  45.969  1.00  0.00     0.211 HD
ENDBRANCH   2  12
BRANCH   6  14
HETATM   14  O   UNL     1      41.922  39.100  47.401  1.00  0.00    -0.359 OA
HETATM   15  H   UNL     1      42.436  39.255  48.213  1.00  0.00     0.213 HD
ENDBRANCH   6  14
BRANCH   4  16
HETATM   16  O   UNL     1      46.204  38.646  47.299  1.00  0.00    -0.380 OA
HETATM   17  H   UNL     1      46.130  37.957  47.985  1.00  0.00     0.211 HD
ENDBRANCH   4  16
BRANCH   5  18
HETATM   18  O   UNL     1      44.529  36.580  46.667  1.00  0.00    -0.378 OA
HETATM   19  H   UNL     1      44.402  35.855  47.310  1.00  0.00     0.211 HD
ENDBRANCH   5  18
TORSDOF 6
ENDMDL
MODEL 10
REMARK VINA RESULT:    -4.200      7.858      9.382
REMARK INTER + INTRA:          -5.585
REMARK INTER:                  -5.177
REMARK INTRA:                  -0.408
REMARK UNBOUND:                -0.402
REMARK  6 active torsions:
REMARK  status: ('A' for Active; 'I' for Inactive)
REMARK    1  A    between atoms: S_1  and  C_15 
REMARK    2  A    between atoms: O_3  and  C_10 
REMARK    3  A    between atoms: O_4  and  C_12 
REMARK    4  A    between atoms: O_5  and  C_13 
REMARK    5  A    between atoms: O_6  and  C_14 
REMARK    6  A    between atoms: C_11  and  C_15 
ROOT
HETATM    1  O   UNL     1      45.968  40.871  42.820  1.00  0.00    -0.328 OA
HETATM    2  C   UNL     1      45.023  40.816  40.520  1.00  0.00     0.168 C 
HETATM    3  C   UNL     1      46.085  40.257  41.508  1.00  0.00     0.166 C 
HETATM    4  C   UNL     1      43.623  40.896  41.170  1.00  0.00     0.172 C 
HETATM    5  C   UNL     1      43.664  41.481  42.581  1.00  0.00     0.197 C 
HETATM    6  C   UNL     1      44.691  40.729  43.427  1.00  0.00     0.263 C 
ENDROOT
BRANCH   3   7
HETATM    7  C   UNL     1      47.527  40.560  41.096  1.00  0.00     0.178 C 
BRANCH   7   8
HETATM    8  S   UNL     1      48.415  39.183  40.445  1.00  0.00     0.118 S 
HETATM    9  O   UNL     1      47.841  39.029  39.110  1.00  0.00    -0.594 OA
HETATM   10  O   UNL     1      48.112  38.107  41.382  1.00  0.00    -0.594 OA
HETATM   11  O   UNL     1      49.798  39.651  40.463  1.00  0.00    -0.594 OA
ENDBRANCH   7   8
ENDBRANCH   3   7
BRANCH   2  12
HETATM   12  O   UNL     1      44.880  40.004  39.352  1.00  0.00    -0.380 OA
HETATM   13  H   UNL     1      43.915  39.869  39.176  1.00  0.00     0.211 HD
ENDBRANCH   2  12
BRANCH   6  14
HETATM   14  O   UNL     1      44.360  39.371  43.605  1.00  0.00    -0.359 OA
HETATM   15  H   UNL     1      43.584  39.375  44.193  1.00  0.00     0.213 HD
ENDBRANCH   6  14
BRANCH   4  16
HETATM   16  O   UNL     1      42.740  41.719  40.377  1.00  0.00    -0.380 OA
HETATM   17  H   UNL     1      41.840  41.395  40.568  1.00  0.00     0.211 HD
ENDBRANCH   4  16
BRANCH   5  18
HETATM   18  O   UNL     1      44.010  42.884  42.499  1.00  0.00    -0.378 OA
HETATM   19  H   UNL     1      43.581  43.225  41.689  1.00  0.00     0.211 HD
ENDBRANCH   5  18
TORSDOF 6
ENDMDL
