MODEL 1
REMARK VINA RESULT:    -5.846      0.000      0.000
REMARK INTER + INTRA:          -7.649
REMARK INTER:                  -7.214
REMARK INTRA:                  -0.436
REMARK UNBOUND:                -0.436
REMARK  6 active torsions:
REMARK  status: ('A' for Active; 'I' for Inactive)
REMARK    1  A    between atoms: S_1  and  C_15 
REMARK    2  A    between atoms: O_3  and  C_10 
REMARK    3  A    between atoms: O_4  and  C_12 
REMARK    4  A    between atoms: O_5  and  C_13 
REMARK    5  A    between atoms: O_6  and  C_14 
REMARK    6  A    between atoms: C_11  and  C_15 
ROOT
HETATM    1  O   UNL     1      43.962  42.884  43.869  1.00  0.00    -0.328 OA
HETATM    2  C   UNL     1      44.275  43.096  46.302  1.00  0.00     0.168 C 
HETATM    3  C   UNL     1      44.620  42.295  45.023  1.00  0.00     0.166 C 
HETATM    4  C   UNL     1      44.535  44.600  46.097  1.00  0.00     0.172 C 
HETATM    5  C   UNL     1      43.868  45.127  44.827  1.00  0.00     0.197 C 
HETATM    6  C   UNL     1      44.276  44.243  43.642  1.00  0.00     0.263 C 
ENDROOT
BRANCH   3   7
HETATM    7  C   UNL     1      44.122  40.849  45.039  1.00  0.00     0.178 C 
BRANCH   7   8
HETATM    8  S   UNL     1      45.293  39.682  45.653  1.00  0.00     0.118 S 
HETATM    9  O   UNL     1      46.571  40.261  45.241  1.00  0.00    -0.594 OA
HETATM   10  O   UNL     1      45.053  39.697  47.092  1.00  0.00    -0.594 OA
HETATM   11  O   UNL     1      44.930  38.443  44.975  1.00  0.00    -0.594 OA
ENDBRANCH   7   8
ENDBRANCH   3   7
BRANCH   2  12
HETATM   12  O   UNL     1      45.039  42.760  47.465  1.00  0.00    -0.380 OA
HETATM   13  H   UNL     1      45.159  43.577  48.015  1.00  0.00     0.211 HD
ENDBRANCH   2  12
BRANCH   6  14
HETATM   14  O   UNL     1      45.664  44.391  43.372  1.00  0.00    -0.359 OA
HETATM   15  H   UNL     1      45.743  44.227  42.415  1.00  0.00     0.213 HD
ENDBRANCH   6  14
BRANCH   4  16
HETATM   16  O   UNL     1      44.051  45.305  47.256  1.00  0.00    -0.380 OA
HETATM   17  H   UNL     1      43.244  45.755  46.930  1.00  0.00     0.211 HD
ENDBRANCH   4  16
BRANCH   5  18
HETATM   18  O   UNL     1      44.255  46.489  44.565  1.00  0.00    -0.378 OA
HETATM   19  H   UNL     1      45.210  46.526  44.769  1.00  0.00     0.211 HD
ENDBRANCH   5  18
TORSDOF 6
ENDMDL
MODEL 2
REMARK VINA RESULT:    -5.580      1.533      2.943
REMARK INTER + INTRA:          -7.321
REMARK INTER:                  -6.913
REMARK INTRA:                  -0.408
REMARK UNBOUND:                -0.436
REMARK  6 active torsions:
REMARK  status: ('A' for Active; 'I' for Inactive)
REMARK    1  A    between atoms: S_1  and  C_15 
REMARK    2  A    between atoms: O_3  and  C_10 
REMARK    3  A    between atoms: O_4  and  C_12 
REMARK    4  A    between atoms: O_5  and  C_13 
REMARK    5  A    between atoms: O_6  and  C_14 
REMARK    6  A    between atoms: C_11  and  C_15 
ROOT
HETATM    1  O   UNL     1      44.944  44.308  45.998  1.00  0.00    -0.328 OA
HETATM    2  C   UNL     1      44.485  42.683  44.206  1.00  0.00     0.168 C 
HETATM    3  C   UNL     1      44.494  42.953  45.731  1.00  0.00     0.166 C 
HETATM    4  C   UNL     1      43.720  43.788  43.455  1.00  0.00     0.172 C 
HETATM    5  C   UNL     1      44.205  45.184  43.842  1.00  0.00     0.197 C 
HETATM    6  C   UNL     1      44.180  45.319  45.370  1.00  0.00     0.263 C 
ENDROOT
BRANCH   3   7
HETATM    7  C   UNL     1      45.468  42.074  46.515  1.00  0.00     0.178 C 
BRANCH   7   8
HETATM    8  S   UNL     1      44.789  40.539  47.058  1.00  0.00     0.118 S 
HETATM    9  O   UNL     1      43.351  40.801  47.047  1.00  0.00    -0.594 OA
HETATM   10  O   UNL     1      45.245  39.598  46.040  1.00  0.00    -0.594 OA
HETATM   11  O   UNL     1      45.374  40.355  48.381  1.00  0.00    -0.594 OA
ENDBRANCH   7   8
ENDBRANCH   3   7
BRANCH   2  12
HETATM   12  O   UNL     1      43.846  41.469  43.799  1.00  0.00    -0.380 OA
HETATM   13  H   UNL     1      42.921  41.679  43.508  1.00  0.00     0.211 HD
ENDBRANCH   2  12
BRANCH   6  14
HETATM   14  O   UNL     1      42.839  45.291  45.844  1.00  0.00    -0.359 OA
HETATM   15  H   UNL     1      42.860  44.664  46.588  1.00  0.00     0.213 HD
ENDBRANCH   6  14
BRANCH   4  16
HETATM   16  O   UNL     1      43.881  43.568  42.040  1.00  0.00    -0.380 OA
HETATM   17  H   UNL     1      44.732  44.010  41.835  1.00  0.00     0.211 HD
ENDBRANCH   4  16
BRANCH   5  18
HETATM   18  O   UNL     1      43.374  46.203  43.257  1.00  0.00    -0.378 OA
HETATM   19  H   UNL     1      42.668  46.363  43.913  1.00  0.00     0.211 HD
ENDBRANCH   5  18
TORSDOF 6
ENDMDL
MODEL 3
REMARK VINA RESULT:    -5.041      1.400      1.720
REMARK INTER + INTRA:          -6.655
REMARK INTER:                  -6.266
REMARK INTRA:                  -0.389
REMARK UNBOUND:                -0.436
REMARK  6 active torsions:
REMARK  status: ('A' for Active; 'I' for Inactive)
REMARK    1  A    between atoms: S_1  and  C_15 
REMARK    2  A    between atoms: O_3  and  C_10 
REMARK    3  A    between atoms: O_4  and  C_12 
REMARK    4  A    between atoms: O_5  and  C_13 
REMARK    5  A    between atoms: O_6  and  C_14 
REMARK    6  A    between atoms: C_11  and  C_15 
ROOT
HETATM    1  O   UNL     1      44.082  41.670  44.253  1.00  0.00    -0.328 OA
HETATM    2  C   UNL     1      44.517  42.912  46.335  1.00  0.00     0.168 C 
HETATM    3  C   UNL     1      45.022  41.830  45.349  1.00  0.00     0.166 C 
HETATM    4  C   UNL     1      44.152  44.209  45.589  1.00  0.00     0.172 C 
HETATM    5  C   UNL     1      43.217  43.948  44.410  1.00  0.00     0.197 C 
HETATM    6  C   UNL     1      43.821  42.852  43.523  1.00  0.00     0.263 C 
ENDROOT
BRANCH   3   7
HETATM    7  C   UNL     1      45.128  40.431  45.959  1.00  0.00     0.178 C 
BRANCH   7   8
HETATM    8  S   UNL     1      46.722  40.035  46.601  1.00  0.00     0.118 S 
HETATM    9  O   UNL     1      47.097  38.854  45.825  1.00  0.00    -0.594 OA
HETATM   10  O   UNL     1      47.503  41.232  46.307  1.00  0.00    -0.594 OA
HETATM   11  O   UNL     1      46.469  39.790  48.017  1.00  0.00    -0.594 OA
ENDBRANCH   7   8
ENDBRANCH   3   7
BRANCH   2  12
HETATM   12  O   UNL     1      45.457  43.327  47.330  1.00  0.00    -0.380 OA
HETATM   13  H   UNL     1      45.697  44.276  47.165  1.00  0.00     0.211 HD
ENDBRANCH   2  12
BRANCH   6  14
HETATM   14  O   UNL     1      45.011  43.322  42.902  1.00  0.00    -0.359 OA
HETATM   15  H   UNL     1      45.580  43.592  43.645  1.00  0.00     0.213 HD
ENDBRANCH   6  14
BRANCH   4  16
HETATM   16  O   UNL     1      43.545  45.116  46.529  1.00  0.00    -0.380 OA
HETATM   17  H   UNL     1      44.298  45.408  47.085  1.00  0.00     0.211 HD
ENDBRANCH   4  16
BRANCH   5  18
HETATM   18  O   UNL     1      43.018  45.141  43.630  1.00  0.00    -0.378 OA
HETATM   19  H   UNL     1      43.370  45.866  44.182  1.00  0.00     0.211 HD
ENDBRANCH   5  18
TORSDOF 6
ENDMDL
MODEL 4
REMARK VINA RESULT:    -4.838     10.006     11.632
REMARK INTER + INTRA:          -6.405
REMARK INTER:                  -6.218
REMARK INTRA:                  -0.186
REMARK UNBOUND:                -0.436
REMARK  6 active torsions:
REMARK  status: ('A' for Active; 'I' for Inactive)
REMARK    1  A    between atoms: S_1  and  C_15 
REMARK    2  A    between atoms: O_3  and  C_10 
REMARK    3  A    between atoms: O_4  and  C_12 
REMARK    4  A    between atoms: O_5  and  C_13 
REMARK    5  A    between atoms: O_6  and  C_14 
REMARK    6  A    between atoms: C_11  and  C_15 
ROOT
HETATM    1  O   UNL     1      36.981  43.381  54.421  1.00  0.00    -0.328 OA
HETATM    2  C   UNL     1      38.057  42.134  52.591  1.00  0.00     0.168 C 
HETATM    3  C   UNL     1      36.876  43.042  53.013  1.00  0.00     0.166 C 
HETATM    4  C   UNL     1      39.403  42.746  53.019  1.00  0.00     0.172 C 
HETATM    5  C   UNL     1      39.410  43.139  54.496  1.00  0.00     0.197 C 
HETATM    6  C   UNL     1      38.189  44.020  54.786  1.00  0.00     0.263 C 
ENDROOT
BRANCH   3   7
HETATM    7  C   UNL     1      35.504  42.379  52.889  1.00  0.00     0.178 C 
BRANCH   7   8
HETATM    8  S   UNL     1      34.252  43.418  52.207  1.00  0.00     0.118 S 
HETATM    9  O   UNL     1      34.858  44.747  52.286  1.00  0.00    -0.594 OA
HETATM   10  O   UNL     1      34.094  42.900  50.852  1.00  0.00    -0.594 OA
HETATM   11  O   UNL     1      33.112  43.206  53.091  1.00  0.00    -0.594 OA
ENDBRANCH   7   8
ENDBRANCH   3   7
BRANCH   2  12
HETATM   12  O   UNL     1      38.197  41.918  51.183  1.00  0.00    -0.380 OA
HETATM   13  H   UNL     1      38.189  40.941  51.009  1.00  0.00     0.211 HD
ENDBRANCH   2  12
BRANCH   6  14
HETATM   14  O   UNL     1      38.310  45.267  54.113  1.00  0.00    -0.359 OA
HETATM   15  H   UNL     1      37.433  45.679  54.208  1.00  0.00     0.213 HD
ENDBRANCH   6  14
BRANCH   4  16
HETATM   16  O   UNL     1      40.444  41.789  52.743  1.00  0.00    -0.380 OA
HETATM   17  H   UNL     1      40.022  40.927  52.944  1.00  0.00     0.211 HD
ENDBRANCH   4  16
BRANCH   5  18
HETATM   18  O   UNL     1      40.611  43.855  54.838  1.00  0.00    -0.378 OA
HETATM   19  H   UNL     1      41.060  44.018  53.986  1.00  0.00     0.211 HD
ENDBRANCH   5  18
TORSDOF 6
ENDMDL
MODEL 5
REMARK VINA RESULT:    -4.797      2.575      5.083
REMARK INTER + INTRA:          -6.354
REMARK INTER:                  -5.919
REMARK INTRA:                  -0.434
REMARK UNBOUND:                -0.436
REMARK  6 active torsions:
REMARK  status: ('A' for Active; 'I' for Inactive)
REMARK    1  A    between atoms: S_1  and  C_15 
REMARK    2  A    between atoms: O_3  and  C_10 
REMARK    3  A    between atoms: O_4  and  C_12 
REMARK    4  A    between atoms: O_5  and  C_13 
REMARK    5  A    between atoms: O_6  and  C_14 
REMARK    6  A    between atoms: C_11  and  C_15 
ROOT
HETATM    1  O   UNL     1      45.069  40.148  46.468  1.00  0.00    -0.328 OA
HETATM    2  C   UNL     1      46.358  42.220  46.796  1.00  0.00     0.168 C 
HETATM    3  C   UNL     1      44.991  41.598  46.418  1.00  0.00     0.166 C 
HETATM    4  C   UNL     1      46.882  41.637  48.121  1.00  0.00     0.172 C 
HETATM    5  C   UNL     1      46.867  40.109  48.119  1.00  0.00     0.197 C 
HETATM    6  C   UNL     1      45.470  39.621  47.717  1.00  0.00     0.263 C 
ENDROOT
BRANCH   3   7
HETATM    7  C   UNL     1      44.542  41.900  44.989  1.00  0.00     0.178 C 
BRANCH   7   8
HETATM    8  S   UNL     1      43.979  43.552  44.735  1.00  0.00     0.118 S 
HETATM    9  O   UNL     1      45.186  44.237  44.275  1.00  0.00    -0.594 OA
HETATM   10  O   UNL     1      42.942  43.396  43.720  1.00  0.00    -0.594 OA
HETATM   11  O   UNL     1      43.502  43.957  46.053  1.00  0.00    -0.594 OA
ENDBRANCH   7   8
ENDBRANCH   3   7
BRANCH   2  12
HETATM   12  O   UNL     1      46.353  43.636  47.008  1.00  0.00    -0.380 OA
HETATM   13  H   UNL     1      46.416  44.090  46.128  1.00  0.00     0.211 HD
ENDBRANCH   2  12
BRANCH   6  14
HETATM   14  O   UNL     1      44.522  39.959  48.723  1.00  0.00    -0.359 OA
HETATM   15  H   UNL     1      44.478  39.168  49.288  1.00  0.00     0.213 HD
ENDBRANCH   6  14
BRANCH   4  16
HETATM   16  O   UNL     1      48.217  42.133  48.337  1.00  0.00    -0.380 OA
HETATM   17  H   UNL     1      48.085  43.095  48.472  1.00  0.00     0.211 HD
ENDBRANCH   4  16
BRANCH   5  18
HETATM   18  O   UNL     1      47.204  39.585  49.417  1.00  0.00    -0.378 OA
HETATM   19  H   UNL     1      48.172  39.461  49.397  1.00  0.00     0.211 HD
ENDBRANCH   5  18
TORSDOF 6
ENDMDL
MODEL 6
REMARK VINA RESULT:    -4.702     10.359     11.696
REMARK INTER + INTRA:          -6.237
REMARK INTER:                  -5.819
REMARK INTRA:                  -0.418
REMARK UNBOUND:                -0.436
REMARK  6 active torsions:
REMARK  status: ('A' for Active; 'I' for Inactive)
REMARK    1  A    between atoms: S_1  and  C_15 
REMARK    2  A    between atoms: O_3  and  C_10 
REMARK    3  A    between atoms: O_4  and  C_12 
REMARK    4  A    between atoms: O_5  and  C_13 
REMARK    5  A    between atoms: O_6  and  C_14 
REMARK    6  A    between atoms: C_11  and  C_15 
ROOT
HETATM    1  O   UNL     1      36.249  41.969  53.153  1.00  0.00    -0.328 OA
HETATM    2  C   UNL     1      36.520  44.146  54.271  1.00  0.00     0.168 C 
HETATM    3  C   UNL     1      37.149  43.097  53.322  1.00  0.00     0.166 C 
HETATM    4  C   UNL     1      35.092  44.509  53.822  1.00  0.00     0.172 C 
HETATM    5  C   UNL     1      34.229  43.267  53.599  1.00  0.00     0.197 C 
HETATM    6  C   UNL     1      34.968  42.306  52.659  1.00  0.00     0.263 C 
ENDROOT
BRANCH   3   7
HETATM    7  C   UNL     1      38.438  42.470  53.853  1.00  0.00     0.178 C 
BRANCH   7   8
HETATM    8  S   UNL     1      39.912  43.104  53.121  1.00  0.00     0.118 S 
HETATM    9  O   UNL     1      40.933  42.167  53.587  1.00  0.00    -0.594 OA
HETATM   10  O   UNL     1      39.628  43.034  51.691  1.00  0.00    -0.594 OA
HETATM   11  O   UNL     1      40.014  44.452  53.669  1.00  0.00    -0.594 OA
ENDBRANCH   7   8
ENDBRANCH   3   7
BRANCH   2  12
HETATM   12  O   UNL     1      37.200  45.403  54.339  1.00  0.00    -0.380 OA
HETATM   13  H   UNL     1      38.011  45.357  53.768  1.00  0.00     0.211 HD
ENDBRANCH   2  12
BRANCH   6  14
HETATM   14  O   UNL     1      35.073  42.873  51.359  1.00  0.00    -0.359 OA
HETATM   15  H   UNL     1      34.385  42.418  50.841  1.00  0.00     0.213 HD
ENDBRANCH   6  14
BRANCH   4  16
HETATM   16  O   UNL     1      34.506  45.362  54.824  1.00  0.00    -0.380 OA
HETATM   17  H   UNL     1      33.757  44.830  55.168  1.00  0.00     0.211 HD
ENDBRANCH   4  16
BRANCH   5  18
HETATM   18  O   UNL     1      32.956  43.616  53.026  1.00  0.00    -0.378 OA
HETATM   19  H   UNL     1      32.301  43.088  53.522  1.00  0.00     0.211 HD
ENDBRANCH   5  18
TORSDOF 6
ENDMDL
MODEL 7
REMARK VINA RESULT:    -4.646      2.304      5.669
REMARK INTER + INTRA:          -6.168
REMARK INTER:                  -5.720
REMARK INTRA:                  -0.448
REMARK UNBOUND:                -0.436
REMARK  6 active torsions:
REMARK  status: ('A' for Active; 'I' for Inactive)
REMARK    1  A    between atoms: S_1  and  C_15 
REMARK    2  A    between atoms: O_3  and  C_10 
REMARK    3  A    between atoms: O_4  and  C_12 
REMARK    4  A    between atoms: O_5  and  C_13 
REMARK    5  A    between atoms: O_6  and  C_14 
REMARK    6  A    between atoms: C_11  and  C_15 
ROOT
HETATM    1  O   UNL     1      45.245  40.322  47.219  1.00  0.00    -0.328 OA
HETATM    2  C   UNL     1      44.979  39.975  44.796  1.00  0.00     0.168 C 
HETATM    3  C   UNL     1      45.162  41.003  45.939  1.00  0.00     0.166 C 
HETATM    4  C   UNL     1      46.042  38.864  44.879  1.00  0.00     0.172 C 
HETATM    5  C   UNL     1      46.115  38.245  46.274  1.00  0.00     0.197 C 
HETATM    6  C   UNL     1      46.281  39.363  47.311  1.00  0.00     0.263 C 
ENDROOT
BRANCH   3   7
HETATM    7  C   UNL     1      43.987  41.968  46.105  1.00  0.00     0.178 C 
BRANCH   7   8
HETATM    8  S   UNL     1      44.060  43.390  45.065  1.00  0.00     0.118 S 
HETATM    9  O   UNL     1      43.207  43.011  43.939  1.00  0.00    -0.594 OA
HETATM   10  O   UNL     1      43.517  44.447  45.912  1.00  0.00    -0.594 OA
HETATM   11  O   UNL     1      45.479  43.513  44.750  1.00  0.00    -0.594 OA
ENDBRANCH   7   8
ENDBRANCH   3   7
BRANCH   2  12
HETATM   12  O   UNL     1      45.113  40.497  43.470  1.00  0.00    -0.380 OA
HETATM   13  H   UNL     1      45.781  41.231  43.483  1.00  0.00     0.211 HD
ENDBRANCH   2  12
BRANCH   6  14
HETATM   14  O   UNL     1      47.549  39.990  47.160  1.00  0.00    -0.359 OA
HETATM   15  H   UNL     1      47.460  40.832  47.641  1.00  0.00     0.213 HD
ENDBRANCH   6  14
BRANCH   4  16
HETATM   16  O   UNL     1      45.726  37.862  43.894  1.00  0.00    -0.380 OA
HETATM   17  H   UNL     1      46.603  37.607  43.537  1.00  0.00     0.211 HD
ENDBRANCH   4  16
BRANCH   5  18
HETATM   18  O   UNL     1      47.219  37.328  46.378  1.00  0.00    -0.378 OA
HETATM   19  H   UNL     1      47.858  37.765  46.973  1.00  0.00     0.211 HD
ENDBRANCH   5  18
TORSDOF 6
ENDMDL
MODEL 8
REMARK VINA RESULT:    -4.546     11.325     12.847
REMARK INTER + INTRA:          -6.045
REMARK INTER:                  -5.671
REMARK INTRA:                  -0.374
REMARK UNBOUND:                -0.436
REMARK  6 active torsions:
REMARK  status: ('A' for Active; 'I' for Inactive)
REMARK    1  A    between atoms: S_1  and  C_15 
REMARK    2  A    between atoms: O_3  and  C_10 
REMARK    3  A    between atoms: O_4  and  C_12 
REMARK    4  A    between atoms: O_5  and  C_13 
REMARK    5  A    between atoms: O_6  and  C_14 
REMARK    6  A    between atoms: C_11  and  C_15 
ROOT
HETATM    1  O   UNL     1      36.560  43.277  55.029  1.00  0.00    -0.328 OA
HETATM    2  C   UNL     1      36.234  42.299  52.793  1.00  0.00     0.168 C 
HETATM    3  C   UNL     1      35.597  43.099  53.955  1.00  0.00     0.166 C 
HETATM    4  C   UNL     1      37.580  42.916  52.371  1.00  0.00     0.172 C 
HETATM    5  C   UNL     1      38.508  43.135  53.565  1.00  0.00     0.197 C 
HETATM    6  C   UNL     1      37.758  43.922  54.647  1.00  0.00     0.263 C 
ENDROOT
BRANCH   3   7
HETATM    7  C   UNL     1      34.416  42.396  54.625  1.00  0.00     0.178 C 
BRANCH   7   8
HETATM    8  S   UNL     1      32.850  43.143  54.310  1.00  0.00     0.118 S 
HETATM    9  O   UNL     1      32.798  44.213  55.305  1.00  0.00    -0.594 OA
HETATM   10  O   UNL     1      32.973  43.599  52.929  1.00  0.00    -0.594 OA
HETATM   11  O   UNL     1      31.902  42.055  54.523  1.00  0.00    -0.594 OA
ENDBRANCH   7   8
ENDBRANCH   3   7
BRANCH   2  12
HETATM   12  O   UNL     1      35.470  42.254  51.584  1.00  0.00    -0.380 OA
HETATM   13  H   UNL     1      35.029  41.367  51.519  1.00  0.00     0.211 HD
ENDBRANCH   2  12
BRANCH   6  14
HETATM   14  O   UNL     1      37.485  45.243  54.194  1.00  0.00    -0.359 OA
HETATM   15  H   UNL     1      38.096  45.803  54.705  1.00  0.00     0.213 HD
ENDBRANCH   6  14
BRANCH   4  16
HETATM   16  O   UNL     1      38.194  42.044  51.403  1.00  0.00    -0.380 OA
HETATM   17  H   UNL     1      38.896  41.591  51.915  1.00  0.00     0.211 HD
ENDBRANCH   4  16
BRANCH   5  18
HETATM   18  O   UNL     1      39.691  43.859  53.178  1.00  0.00    -0.378 OA
HETATM   19  H   UNL     1      39.800  43.675  52.225  1.00  0.00     0.211 HD
ENDBRANCH   5  18
TORSDOF 6
ENDMDL
MODEL 9
REMARK VINA RESULT:    -4.371      1.528      1.991
REMARK INTER + INTRA:          -5.829
REMARK INTER:                  -5.396
REMARK INTRA:                  -0.433
REMARK UNBOUND:                -0.436
REMARK  6 active torsions:
REMARK  status: ('A' for Active; 'I' for Inactive)
REMARK    1  A    between atoms: S_1  and  C_15 
REMARK    2  A    between atoms: O_3  and  C_10 
REMARK    3  A    between atoms: O_4  and  C_12 
REMARK    4  A    between atoms: O_5  and  C_13 
REMARK    5  A    between atoms: O_6  and  C_14 
REMARK    6  A    between atoms: C_11  and  C_15 
ROOT
HETATM    1  O   UNL     1      43.650  42.292  45.702  1.00  0.00    -0.328 OA
HETATM    2  C   UNL     1      45.908  42.771  46.561  1.00  0.00     0.168 C 
HETATM    3  C   UNL     1      45.009  41.784  45.777  1.00  0.00     0.166 C 
HETATM    4  C   UNL     1      45.772  44.200  46.004  1.00  0.00     0.172 C 
HETATM    5  C   UNL     1      44.311  44.634  45.892  1.00  0.00     0.197 C 
HETATM    6  C   UNL     1      43.530  43.570  45.111  1.00  0.00     0.263 C 
ENDROOT
BRANCH   3   7
HETATM    7  C   UNL     1      44.861  40.414  46.440  1.00  0.00     0.178 C 
BRANCH   7   8
HETATM    8  S   UNL     1      45.995  39.196  45.857  1.00  0.00     0.118 S 
HETATM    9  O   UNL     1      45.327  37.942  46.204  1.00  0.00    -0.594 OA
HETATM   10  O   UNL     1      46.069  39.471  44.426  1.00  0.00    -0.594 OA
HETATM   11  O   UNL     1      47.214  39.475  46.608  1.00  0.00    -0.594 OA
ENDBRANCH   7   8
ENDBRANCH   3   7
BRANCH   2  12
HETATM   12  O   UNL     1      47.313  42.502  46.507  1.00  0.00    -0.380 OA
HETATM   13  H   UNL     1      47.600  42.140  47.386  1.00  0.00     0.211 HD
ENDBRANCH   2  12
BRANCH   6  14
HETATM   14  O   UNL     1      43.967  43.532  43.759  1.00  0.00    -0.359 OA
HETATM   15  H   UNL     1      44.873  43.178  43.808  1.00  0.00     0.213 HD
ENDBRANCH   6  14
BRANCH   4  16
HETATM   16  O   UNL     1      46.503  45.093  46.867  1.00  0.00    -0.380 OA
HETATM   17  H   UNL     1      47.163  44.508  47.295  1.00  0.00     0.211 HD
ENDBRANCH   4  16
BRANCH   5  18
HETATM   18  O   UNL     1      44.196  45.903  45.222  1.00  0.00    -0.378 OA
HETATM   19  H   UNL     1      43.440  46.349  45.650  1.00  0.00     0.211 HD
ENDBRANCH   5  18
TORSDOF 6
ENDMDL
MODEL 10
REMARK VINA RESULT:    -4.079      3.213      4.724
REMARK INTER + INTRA:          -5.469
REMARK INTER:                  -5.075
REMARK INTRA:                  -0.394
REMARK UNBOUND:                -0.436
REMARK  6 active torsions:
REMARK  status: ('A' for Active; 'I' for Inactive)
REMARK    1  A    between atoms: S_1  and  C_15 
REMARK    2  A    between atoms: O_3  and  C_10 
REMARK    3  A    between atoms: O_4  and  C_12 
REMARK    4  A    between atoms: O_5  and  C_13 
REMARK    5  A    between atoms: O_6  and  C_14 
REMARK    6  A    between atoms: C_11  and  C_15 
ROOT
HETATM    1  O   UNL     1      45.565  41.693  46.383  1.00  0.00    -0.328 OA
HETATM    2  C   UNL     1      45.905  39.294  46.825  1.00  0.00     0.168 C 
HETATM    3  C   UNL     1      45.685  40.389  45.753  1.00  0.00     0.166 C 
HETATM    4  C   UNL     1      47.060  39.673  47.770  1.00  0.00     0.172 C 
HETATM    5  C   UNL     1      46.896  41.083  48.337  1.00  0.00     0.197 C 
HETATM    6  C   UNL     1      46.671  42.066  47.181  1.00  0.00     0.263 C 
ENDROOT
BRANCH   3   7
HETATM    7  C   UNL     1      44.385  40.236  44.962  1.00  0.00     0.178 C 
BRANCH   7   8
HETATM    8  S   UNL     1      44.550  39.329  43.458  1.00  0.00     0.118 S 
HETATM    9  O   UNL     1      43.710  38.156  43.696  1.00  0.00    -0.594 OA
HETATM   10  O   UNL     1      44.034  40.255  42.455  1.00  0.00    -0.594 OA
HETATM   11  O   UNL     1      45.981  39.058  43.377  1.00  0.00    -0.594 OA
ENDBRANCH   7   8
ENDBRANCH   3   7
BRANCH   2  12
HETATM   12  O   UNL     1      46.267  38.004  46.323  1.00  0.00    -0.380 OA
HETATM   13  H   UNL     1      45.742  37.824  45.499  1.00  0.00     0.211 HD
ENDBRANCH   2  12
BRANCH   6  14
HETATM   14  O   UNL     1      47.844  42.165  46.384  1.00  0.00    -0.359 OA
HETATM   15  H   UNL     1      48.075  43.111  46.411  1.00  0.00     0.213 HD
ENDBRANCH   6  14
BRANCH   4  16
HETATM   16  O   UNL     1      47.113  38.701  48.832  1.00  0.00    -0.380 OA
HETATM   17  H   UNL     1      47.948  38.217  48.657  1.00  0.00     0.211 HD
ENDBRANCH   4  16
BRANCH   5  18
HETATM   18  O   UNL     1      48.060  41.481  49.085  1.00  0.00    -0.378 OA
HETATM   19  H   UNL     1      48.461  40.645  49.393  1.00  0.00     0.211 HD
ENDBRANCH   5  18
TORSDOF 6
ENDMDL
