MODEL 1
REMARK VINA RESULT:    -5.855      0.000      0.000
REMARK INTER + INTRA:          -7.661
REMARK INTER:                  -7.224
REMARK INTRA:                  -0.437
REMARK UNBOUND:                -0.437
REMARK  6 active torsions:
REMARK  status: ('A' for Active; 'I' for Inactive)
REMARK    1  A    between atoms: S_1  and  C_15 
REMARK    2  A    between atoms: O_3  and  C_10 
REMARK    3  A    between atoms: O_4  and  C_12 
REMARK    4  A    between atoms: O_5  and  C_13 
REMARK    5  A    between atoms: O_6  and  C_14 
REMARK    6  A    between atoms: C_11  and  C_15 
ROOT
HETATM    1  O   UNL     1      43.971  42.910  43.872  1.00  0.00    -0.328 OA
HETATM    2  C   UNL     1      44.281  43.128  46.305  1.00  0.00     0.168 C 
HETATM    3  C   UNL     1      44.626  42.323  45.028  1.00  0.00     0.166 C 
HETATM    4  C   UNL     1      44.543  44.631  46.097  1.00  0.00     0.172 C 
HETATM    5  C   UNL     1      43.878  45.156  44.825  1.00  0.00     0.197 C 
HETATM    6  C   UNL     1      44.286  44.269  43.642  1.00  0.00     0.263 C 
ENDROOT
BRANCH   3   7
HETATM    7  C   UNL     1      44.127  40.878  45.047  1.00  0.00     0.178 C 
BRANCH   7   8
HETATM    8  S   UNL     1      45.289  39.714  45.683  1.00  0.00     0.118 S 
HETATM    9  O   UNL     1      46.571  40.278  45.266  1.00  0.00    -0.594 OA
HETATM   10  O   UNL     1      45.044  39.754  47.121  1.00  0.00    -0.594 OA
HETATM   11  O   UNL     1      44.919  38.466  45.024  1.00  0.00    -0.594 OA
ENDBRANCH   7   8
ENDBRANCH   3   7
BRANCH   2  12
HETATM   12  O   UNL     1      45.044  42.793  47.469  1.00  0.00    -0.380 OA
HETATM   13  H   UNL     1      45.035  41.807  47.582  1.00  0.00     0.211 HD
ENDBRANCH   2  12
BRANCH   6  14
HETATM   14  O   UNL     1      45.675  44.415  43.373  1.00  0.00    -0.359 OA
HETATM   15  H   UNL     1      46.021  43.505  43.389  1.00  0.00     0.213 HD
ENDBRANCH   6  14
BRANCH   4  16
HETATM   16  O   UNL     1      44.059  45.339  47.254  1.00  0.00    -0.380 OA
HETATM   17  H   UNL     1      43.084  45.289  47.161  1.00  0.00     0.211 HD
ENDBRANCH   4  16
BRANCH   5  18
HETATM   18  O   UNL     1      44.267  46.517  44.560  1.00  0.00    -0.378 OA
HETATM   19  H   UNL     1      45.082  46.654  45.080  1.00  0.00     0.211 HD
ENDBRANCH   5  18
TORSDOF 6
ENDMDL
MODEL 2
REMARK VINA RESULT:    -5.494      1.501      2.887
REMARK INTER + INTRA:          -7.215
REMARK INTER:                  -6.731
REMARK INTRA:                  -0.484
REMARK UNBOUND:                -0.437
REMARK  6 active torsions:
REMARK  status: ('A' for Active; 'I' for Inactive)
REMARK    1  A    between atoms: S_1  and  C_15 
REMARK    2  A    between atoms: O_3  and  C_10 
REMARK    3  A    between atoms: O_4  and  C_12 
REMARK    4  A    between atoms: O_5  and  C_13 
REMARK    5  A    between atoms: O_6  and  C_14 
REMARK    6  A    between atoms: C_11  and  C_15 
ROOT
HETATM    1  O   UNL     1      44.996  44.375  45.913  1.00  0.00    -0.328 OA
HETATM    2  C   UNL     1      44.539  42.780  44.094  1.00  0.00     0.168 C 
HETATM    3  C   UNL     1      44.606  43.006  45.624  1.00  0.00     0.166 C 
HETATM    4  C   UNL     1      43.681  43.862  43.414  1.00  0.00     0.172 C 
HETATM    5  C   UNL     1      44.109  45.272  43.822  1.00  0.00     0.197 C 
HETATM    6  C   UNL     1      44.150  45.360  45.353  1.00  0.00     0.263 C 
ENDROOT
BRANCH   3   7
HETATM    7  C   UNL     1      45.663  42.159  46.334  1.00  0.00     0.178 C 
BRANCH   7   8
HETATM    8  S   UNL     1      45.178  40.490  46.634  1.00  0.00     0.118 S 
HETATM    9  O   UNL     1      43.718  40.579  46.662  1.00  0.00    -0.594 OA
HETATM   10  O   UNL     1      45.723  39.775  45.485  1.00  0.00    -0.594 OA
HETATM   11  O   UNL     1      45.802  40.177  47.915  1.00  0.00    -0.594 OA
ENDBRANCH   7   8
ENDBRANCH   3   7
BRANCH   2  12
HETATM   12  O   UNL     1      43.947  41.545  43.678  1.00  0.00    -0.380 OA
HETATM   13  H   UNL     1      44.177  41.386  42.726  1.00  0.00     0.211 HD
ENDBRANCH   2  12
BRANCH   6  14
HETATM   14  O   UNL     1      42.837  45.245  45.888  1.00  0.00    -0.359 OA
HETATM   15  H   UNL     1      42.942  44.665  46.662  1.00  0.00     0.213 HD
ENDBRANCH   6  14
BRANCH   4  16
HETATM   16  O   UNL     1      43.785  43.692  41.987  1.00  0.00    -0.380 OA
HETATM   17  H   UNL     1      43.253  42.887  41.813  1.00  0.00     0.211 HD
ENDBRANCH   4  16
BRANCH   5  18
HETATM   18  O   UNL     1      43.197  46.260  43.308  1.00  0.00    -0.378 OA
HETATM   19  H   UNL     1      42.307  45.891  43.467  1.00  0.00     0.211 HD
ENDBRANCH   5  18
TORSDOF 6
ENDMDL
MODEL 3
REMARK VINA RESULT:    -4.997      2.595      4.932
REMARK INTER + INTRA:          -6.602
REMARK INTER:                  -6.194
REMARK INTRA:                  -0.409
REMARK UNBOUND:                -0.437
REMARK  6 active torsions:
REMARK  status: ('A' for Active; 'I' for Inactive)
REMARK    1  A    between atoms: S_1  and  C_15 
REMARK    2  A    between atoms: O_3  and  C_10 
REMARK    3  A    between atoms: O_4  and  C_12 
REMARK    4  A    between atoms: O_5  and  C_13 
REMARK    5  A    between atoms: O_6  and  C_14 
REMARK    6  A    between atoms: C_11  and  C_15 
ROOT
HETATM    1  O   UNL     1      47.024  43.247  46.843  1.00  0.00    -0.328 OA
HETATM    2  C   UNL     1      44.928  42.054  47.342  1.00  0.00     0.168 C 
HETATM    3  C   UNL     1      45.743  42.845  46.289  1.00  0.00     0.166 C 
HETATM    4  C   UNL     1      45.769  40.914  47.946  1.00  0.00     0.172 C 
HETATM    5  C   UNL     1      47.128  41.406  48.442  1.00  0.00     0.197 C 
HETATM    6  C   UNL     1      47.823  42.182  47.317  1.00  0.00     0.263 C 
ENDROOT
BRANCH   3   7
HETATM    7  C   UNL     1      45.093  44.160  45.856  1.00  0.00     0.178 C 
BRANCH   7   8
HETATM    8  S   UNL     1      44.145  44.050  44.373  1.00  0.00     0.118 S 
HETATM    9  O   UNL     1      42.953  43.320  44.806  1.00  0.00    -0.594 OA
HETATM   10  O   UNL     1      43.911  45.448  44.026  1.00  0.00    -0.594 OA
HETATM   11  O   UNL     1      45.018  43.320  43.461  1.00  0.00    -0.594 OA
ENDBRANCH   7   8
ENDBRANCH   3   7
BRANCH   2  12
HETATM   12  O   UNL     1      43.751  41.406  46.851  1.00  0.00    -0.380 OA
HETATM   13  H   UNL     1      43.853  41.256  45.876  1.00  0.00     0.211 HD
ENDBRANCH   2  12
BRANCH   6  14
HETATM   14  O   UNL     1      48.159  41.304  46.249  1.00  0.00    -0.359 OA
HETATM   15  H   UNL     1      48.905  40.781  46.593  1.00  0.00     0.213 HD
ENDBRANCH   6  14
BRANCH   4  16
HETATM   16  O   UNL     1      45.018  40.320  49.022  1.00  0.00    -0.380 OA
HETATM   17  H   UNL     1      45.294  40.839  49.807  1.00  0.00     0.211 HD
ENDBRANCH   4  16
BRANCH   5  18
HETATM   18  O   UNL     1      47.960  40.305  48.852  1.00  0.00    -0.378 OA
HETATM   19  H   UNL     1      47.528  39.943  49.650  1.00  0.00     0.211 HD
ENDBRANCH   5  18
TORSDOF 6
ENDMDL
MODEL 4
REMARK VINA RESULT:    -4.883      9.965     11.589
REMARK INTER + INTRA:          -6.462
REMARK INTER:                  -6.275
REMARK INTRA:                  -0.186
REMARK UNBOUND:                -0.437
REMARK  6 active torsions:
REMARK  status: ('A' for Active; 'I' for Inactive)
REMARK    1  A    between atoms: S_1  and  C_15 
REMARK    2  A    between atoms: O_3  and  C_10 
REMARK    3  A    between atoms: O_4  and  C_12 
REMARK    4  A    between atoms: O_5  and  C_13 
REMARK    5  A    between atoms: O_6  and  C_14 
REMARK    6  A    between atoms: C_11  and  C_15 
ROOT
HETATM    1  O   UNL     1      37.108  43.308  54.386  1.00  0.00    -0.328 OA
HETATM    2  C   UNL     1      37.973  41.856  52.595  1.00  0.00     0.168 C 
HETATM    3  C   UNL     1      36.900  42.893  53.009  1.00  0.00     0.166 C 
HETATM    4  C   UNL     1      39.388  42.368  52.919  1.00  0.00     0.172 C 
HETATM    5  C   UNL     1      39.506  42.850  54.365  1.00  0.00     0.197 C 
HETATM    6  C   UNL     1      38.384  43.856  54.651  1.00  0.00     0.263 C 
ENDROOT
BRANCH   3   7
HETATM    7  C   UNL     1      35.470  42.352  52.993  1.00  0.00     0.178 C 
BRANCH   7   8
HETATM    8  S   UNL     1      34.291  43.433  52.252  1.00  0.00     0.118 S 
HETATM    9  O   UNL     1      33.129  43.292  53.129  1.00  0.00    -0.594 OA
HETATM   10  O   UNL     1      34.949  44.734  52.315  1.00  0.00    -0.594 OA
HETATM   11  O   UNL     1      34.121  42.887  50.910  1.00  0.00    -0.594 OA
ENDBRANCH   7   8
ENDBRANCH   3   7
BRANCH   2  12
HETATM   12  O   UNL     1      38.020  41.541  51.200  1.00  0.00    -0.380 OA
HETATM   13  H   UNL     1      38.946  41.687  50.872  1.00  0.00     0.211 HD
ENDBRANCH   2  12
BRANCH   6  14
HETATM   14  O   UNL     1      38.580  45.042  53.890  1.00  0.00    -0.359 OA
HETATM   15  H   UNL     1      38.686  45.742  54.559  1.00  0.00     0.213 HD
ENDBRANCH   6  14
BRANCH   4  16
HETATM   16  O   UNL     1      40.325  41.304  52.660  1.00  0.00    -0.380 OA
HETATM   17  H   UNL     1      41.066  41.498  53.272  1.00  0.00     0.211 HD
ENDBRANCH   4  16
BRANCH   5  18
HETATM   18  O   UNL     1      40.781  43.474  54.602  1.00  0.00    -0.378 OA
HETATM   19  H   UNL     1      41.184  43.573  53.717  1.00  0.00     0.211 HD
ENDBRANCH   5  18
TORSDOF 6
ENDMDL
MODEL 5
REMARK VINA RESULT:    -4.779      2.505      5.106
REMARK INTER + INTRA:          -6.333
REMARK INTER:                  -5.873
REMARK INTRA:                  -0.460
REMARK UNBOUND:                -0.437
REMARK  6 active torsions:
REMARK  status: ('A' for Active; 'I' for Inactive)
REMARK    1  A    between atoms: S_1  and  C_15 
REMARK    2  A    between atoms: O_3  and  C_10 
REMARK    3  A    between atoms: O_4  and  C_12 
REMARK    4  A    between atoms: O_5  and  C_13 
REMARK    5  A    between atoms: O_6  and  C_14 
REMARK    6  A    between atoms: C_11  and  C_15 
ROOT
HETATM    1  O   UNL     1      44.779  40.163  46.398  1.00  0.00    -0.328 OA
HETATM    2  C   UNL     1      46.225  42.104  46.849  1.00  0.00     0.168 C 
HETATM    3  C   UNL     1      44.832  41.614  46.381  1.00  0.00     0.166 C 
HETATM    4  C   UNL     1      46.619  41.450  48.186  1.00  0.00     0.172 C 
HETATM    5  C   UNL     1      46.469  39.929  48.144  1.00  0.00     0.197 C 
HETATM    6  C   UNL     1      45.059  39.577  47.654  1.00  0.00     0.263 C 
ENDROOT
BRANCH   3   7
HETATM    7  C   UNL     1      44.493  41.984  44.937  1.00  0.00     0.178 C 
BRANCH   7   8
HETATM    8  S   UNL     1      44.031  43.671  44.706  1.00  0.00     0.118 S 
HETATM    9  O   UNL     1      43.512  44.045  46.021  1.00  0.00    -0.594 OA
HETATM   10  O   UNL     1      45.291  44.312  44.343  1.00  0.00    -0.594 OA
HETATM   11  O   UNL     1      43.035  43.610  43.643  1.00  0.00    -0.594 OA
ENDBRANCH   7   8
ENDBRANCH   3   7
BRANCH   2  12
HETATM   12  O   UNL     1      46.332  43.510  47.097  1.00  0.00    -0.380 OA
HETATM   13  H   UNL     1      46.320  43.662  48.078  1.00  0.00     0.211 HD
ENDBRANCH   2  12
BRANCH   6  14
HETATM   14  O   UNL     1      44.090  39.978  48.614  1.00  0.00    -0.359 OA
HETATM   15  H   UNL     1      44.430  39.632  49.459  1.00  0.00     0.213 HD
ENDBRANCH   6  14
BRANCH   4  16
HETATM   16  O   UNL     1      47.978  41.819  48.487  1.00  0.00    -0.380 OA
HETATM   17  H   UNL     1      48.171  41.326  49.313  1.00  0.00     0.211 HD
ENDBRANCH   4  16
BRANCH   5  18
HETATM   18  O   UNL     1      46.684  39.351  49.445  1.00  0.00    -0.378 OA
HETATM   19  H   UNL     1      46.731  40.111  50.056  1.00  0.00     0.211 HD
ENDBRANCH   5  18
TORSDOF 6
ENDMDL
MODEL 6
REMARK VINA RESULT:    -4.690     10.334     11.646
REMARK INTER + INTRA:          -6.224
REMARK INTER:                  -5.812
REMARK INTRA:                  -0.411
REMARK UNBOUND:                -0.437
REMARK  6 active torsions:
REMARK  status: ('A' for Active; 'I' for Inactive)
REMARK    1  A    between atoms: S_1  and  C_15 
REMARK    2  A    between atoms: O_3  and  C_10 
REMARK    3  A    between atoms: O_4  and  C_12 
REMARK    4  A    between atoms: O_5  and  C_13 
REMARK    5  A    between atoms: O_6  and  C_14 
REMARK    6  A    between atoms: C_11  and  C_15 
ROOT
HETATM    1  O   UNL     1      36.291  41.946  53.129  1.00  0.00    -0.328 OA
HETATM    2  C   UNL     1      36.549  44.135  54.226  1.00  0.00     0.168 C 
HETATM    3  C   UNL     1      37.182  43.083  53.282  1.00  0.00     0.166 C 
HETATM    4  C   UNL     1      35.115  44.480  53.785  1.00  0.00     0.172 C 
HETATM    5  C   UNL     1      34.263  43.228  53.578  1.00  0.00     0.197 C 
HETATM    6  C   UNL     1      35.003  42.265  52.642  1.00  0.00     0.263 C 
ENDROOT
BRANCH   3   7
HETATM    7  C   UNL     1      38.481  42.473  53.809  1.00  0.00     0.178 C 
BRANCH   7   8
HETATM    8  S   UNL     1      39.947  43.208  53.158  1.00  0.00     0.118 S 
HETATM    9  O   UNL     1      39.967  44.517  53.809  1.00  0.00    -0.594 OA
HETATM   10  O   UNL     1      40.996  42.293  53.596  1.00  0.00    -0.594 OA
HETATM   11  O   UNL     1      39.706  43.236  51.720  1.00  0.00    -0.594 OA
ENDBRANCH   7   8
ENDBRANCH   3   7
BRANCH   2  12
HETATM   12  O   UNL     1      37.218  45.399  54.277  1.00  0.00    -0.380 OA
HETATM   13  H   UNL     1      36.793  46.011  53.621  1.00  0.00     0.211 HD
ENDBRANCH   2  12
BRANCH   6  14
HETATM   14  O   UNL     1      35.094  42.822  51.336  1.00  0.00    -0.359 OA
HETATM   15  H   UNL     1      35.052  42.051  50.742  1.00  0.00     0.213 HD
ENDBRANCH   6  14
BRANCH   4  16
HETATM   16  O   UNL     1      34.528  45.336  54.783  1.00  0.00    -0.380 OA
HETATM   17  H   UNL     1      35.081  46.145  54.745  1.00  0.00     0.211 HD
ENDBRANCH   4  16
BRANCH   5  18
HETATM   18  O   UNL     1      32.982  43.559  53.012  1.00  0.00    -0.378 OA
HETATM   19  H   UNL     1      32.963  43.107  52.146  1.00  0.00     0.211 HD
ENDBRANCH   5  18
TORSDOF 6
ENDMDL
MODEL 7
REMARK VINA RESULT:    -4.676      2.549      5.438
REMARK INTER + INTRA:          -6.206
REMARK INTER:                  -6.012
REMARK INTRA:                  -0.194
REMARK UNBOUND:                -0.437
REMARK  6 active torsions:
REMARK  status: ('A' for Active; 'I' for Inactive)
REMARK    1  A    between atoms: S_1  and  C_15 
REMARK    2  A    between atoms: O_3  and  C_10 
REMARK    3  A    between atoms: O_4  and  C_12 
REMARK    4  A    between atoms: O_5  and  C_13 
REMARK    5  A    between atoms: O_6  and  C_14 
REMARK    6  A    between atoms: C_11  and  C_15 
ROOT
HETATM    1  O   UNL     1      44.875  41.311  47.334  1.00  0.00    -0.328 OA
HETATM    2  C   UNL     1      45.788  39.657  45.755  1.00  0.00     0.168 C 
HETATM    3  C   UNL     1      45.329  41.120  45.968  1.00  0.00     0.166 C 
HETATM    4  C   UNL     1      46.789  39.230  46.844  1.00  0.00     0.172 C 
HETATM    5  C   UNL     1      46.267  39.527  48.249  1.00  0.00     0.197 C 
HETATM    6  C   UNL     1      45.834  40.996  48.324  1.00  0.00     0.263 C 
ENDROOT
BRANCH   3   7
HETATM    7  C   UNL     1      44.127  41.528  45.114  1.00  0.00     0.178 C 
BRANCH   7   8
HETATM    8  S   UNL     1      44.045  43.251  44.747  1.00  0.00     0.118 S 
HETATM    9  O   UNL     1      45.454  43.644  44.727  1.00  0.00    -0.594 OA
HETATM   10  O   UNL     1      43.385  43.281  43.446  1.00  0.00    -0.594 OA
HETATM   11  O   UNL     1      43.266  43.800  45.852  1.00  0.00    -0.594 OA
ENDBRANCH   7   8
ENDBRANCH   3   7
BRANCH   2  12
HETATM   12  O   UNL     1      46.470  39.397  44.524  1.00  0.00    -0.380 OA
HETATM   13  H   UNL     1      47.014  40.193  44.288  1.00  0.00     0.211 HD
ENDBRANCH   2  12
BRANCH   6  14
HETATM   14  O   UNL     1      46.965  41.850  48.205  1.00  0.00    -0.359 OA
HETATM   15  H   UNL     1      47.699  41.332  48.582  1.00  0.00     0.213 HD
ENDBRANCH   6  14
BRANCH   4  16
HETATM   16  O   UNL     1      47.056  37.823  46.687  1.00  0.00    -0.380 OA
HETATM   17  H   UNL     1      46.406  37.542  46.008  1.00  0.00     0.211 HD
ENDBRANCH   4  16
BRANCH   5  18
HETATM   18  O   UNL     1      47.278  39.273  49.242  1.00  0.00    -0.378 OA
HETATM   19  H   UNL     1      47.464  38.317  49.177  1.00  0.00     0.211 HD
ENDBRANCH   5  18
TORSDOF 6
ENDMDL
MODEL 8
REMARK VINA RESULT:    -4.544     11.597     13.063
REMARK INTER + INTRA:          -6.043
REMARK INTER:                  -5.830
REMARK INTRA:                  -0.213
REMARK UNBOUND:                -0.437
REMARK  6 active torsions:
REMARK  status: ('A' for Active; 'I' for Inactive)
REMARK    1  A    between atoms: S_1  and  C_15 
REMARK    2  A    between atoms: O_3  and  C_10 
REMARK    3  A    between atoms: O_4  and  C_12 
REMARK    4  A    between atoms: O_5  and  C_13 
REMARK    5  A    between atoms: O_6  and  C_14 
REMARK    6  A    between atoms: C_11  and  C_15 
ROOT
HETATM    1  O   UNL     1      36.139  43.268  55.034  1.00  0.00    -0.328 OA
HETATM    2  C   UNL     1      36.126  42.226  52.803  1.00  0.00     0.168 C 
HETATM    3  C   UNL     1      35.297  42.944  53.896  1.00  0.00     0.166 C 
HETATM    4  C   UNL     1      37.402  43.021  52.469  1.00  0.00     0.172 C 
HETATM    5  C   UNL     1      38.196  43.382  53.724  1.00  0.00     0.197 C 
HETATM    6  C   UNL     1      37.262  44.070  54.728  1.00  0.00     0.263 C 
ENDROOT
BRANCH   3   7
HETATM    7  C   UNL     1      34.176  42.090  54.491  1.00  0.00     0.178 C 
BRANCH   7   8
HETATM    8  S   UNL     1      32.602  42.884  54.540  1.00  0.00     0.118 S 
HETATM    9  O   UNL     1      32.679  43.676  55.767  1.00  0.00    -0.594 OA
HETATM   10  O   UNL     1      32.589  43.668  53.309  1.00  0.00    -0.594 OA
HETATM   11  O   UNL     1      31.659  41.773  54.580  1.00  0.00    -0.594 OA
ENDBRANCH   7   8
ENDBRANCH   3   7
BRANCH   2  12
HETATM   12  O   UNL     1      35.471  42.060  51.542  1.00  0.00    -0.380 OA
HETATM   13  H   UNL     1      34.491  42.138  51.680  1.00  0.00     0.211 HD
ENDBRANCH   2  12
BRANCH   6  14
HETATM   14  O   UNL     1      36.845  45.333  54.226  1.00  0.00    -0.359 OA
HETATM   15  H   UNL     1      36.548  45.820  55.016  1.00  0.00     0.213 HD
ENDBRANCH   6  14
BRANCH   4  16
HETATM   16  O   UNL     1      38.204  42.232  51.569  1.00  0.00    -0.380 OA
HETATM   17  H   UNL     1      39.085  42.659  51.614  1.00  0.00     0.211 HD
ENDBRANCH   4  16
BRANCH   5  18
HETATM   18  O   UNL     1      39.293  44.260  53.410  1.00  0.00    -0.378 OA
HETATM   19  H   UNL     1      40.006  43.672  53.095  1.00  0.00     0.211 HD
ENDBRANCH   5  18
TORSDOF 6
ENDMDL
MODEL 9
REMARK VINA RESULT:    -4.233      1.718      2.306
REMARK INTER + INTRA:          -5.659
REMARK INTER:                  -5.229
REMARK INTRA:                  -0.430
REMARK UNBOUND:                -0.437
REMARK  6 active torsions:
REMARK  status: ('A' for Active; 'I' for Inactive)
REMARK    1  A    between atoms: S_1  and  C_15 
REMARK    2  A    between atoms: O_3  and  C_10 
REMARK    3  A    between atoms: O_4  and  C_12 
REMARK    4  A    between atoms: O_5  and  C_13 
REMARK    5  A    between atoms: O_6  and  C_14 
REMARK    6  A    between atoms: C_11  and  C_15 
ROOT
HETATM    1  O   UNL     1      43.962  41.941  45.611  1.00  0.00    -0.328 OA
HETATM    2  C   UNL     1      46.195  41.980  46.648  1.00  0.00     0.168 C 
HETATM    3  C   UNL     1      45.226  41.232  45.699  1.00  0.00     0.166 C 
HETATM    4  C   UNL     1      46.302  43.468  46.265  1.00  0.00     0.172 C 
HETATM    5  C   UNL     1      44.929  44.123  46.125  1.00  0.00     0.197 C 
HETATM    6  C   UNL     1      44.066  43.283  45.176  1.00  0.00     0.263 C 
ENDROOT
BRANCH   3   7
HETATM    7  C   UNL     1      44.838  39.834  46.179  1.00  0.00     0.178 C 
BRANCH   7   8
HETATM    8  S   UNL     1      45.899  38.546  45.606  1.00  0.00     0.118 S 
HETATM    9  O   UNL     1      45.016  37.381  45.595  1.00  0.00    -0.594 OA
HETATM   10  O   UNL     1      46.305  39.016  44.285  1.00  0.00    -0.594 OA
HETATM   11  O   UNL     1      46.961  38.508  46.605  1.00  0.00    -0.594 OA
ENDBRANCH   7   8
ENDBRANCH   3   7
BRANCH   2  12
HETATM   12  O   UNL     1      47.547  41.513  46.642  1.00  0.00    -0.380 OA
HETATM   13  H   UNL     1      48.151  42.289  46.502  1.00  0.00     0.211 HD
ENDBRANCH   2  12
BRANCH   6  14
HETATM   14  O   UNL     1      44.593  43.334  43.856  1.00  0.00    -0.359 OA
HETATM   15  H   UNL     1      45.310  43.990  43.908  1.00  0.00     0.213 HD
ENDBRANCH   6  14
BRANCH   4  16
HETATM   16  O   UNL     1      47.086  44.138  47.271  1.00  0.00    -0.380 OA
HETATM   17  H   UNL     1      46.718  43.796  48.113  1.00  0.00     0.211 HD
ENDBRANCH   4  16
BRANCH   5  18
HETATM   18  O   UNL     1      45.043  45.463  45.611  1.00  0.00    -0.378 OA
HETATM   19  H   UNL     1      44.670  45.421  44.709  1.00  0.00     0.211 HD
ENDBRANCH   5  18
TORSDOF 6
ENDMDL
MODEL 10
REMARK VINA RESULT:    -4.233      2.332      5.665
REMARK INTER + INTRA:          -5.659
REMARK INTER:                  -5.260
REMARK INTRA:                  -0.399
REMARK UNBOUND:                -0.437
REMARK  6 active torsions:
REMARK  status: ('A' for Active; 'I' for Inactive)
REMARK    1  A    between atoms: S_1  and  C_15 
REMARK    2  A    between atoms: O_3  and  C_10 
REMARK    3  A    between atoms: O_4  and  C_12 
REMARK    4  A    between atoms: O_5  and  C_13 
REMARK    5  A    between atoms: O_6  and  C_14 
REMARK    6  A    between atoms: C_11  and  C_15 
ROOT
HETATM    1  O   UNL     1      45.985  40.690  47.107  1.00  0.00    -0.328 OA
HETATM    2  C   UNL     1      44.600  39.784  45.283  1.00  0.00     0.168 C 
HETATM    3  C   UNL     1      45.350  41.018  45.842  1.00  0.00     0.166 C 
HETATM    4  C   UNL     1      45.517  38.547  45.256  1.00  0.00     0.172 C 
HETATM    5  C   UNL     1      46.200  38.311  46.603  1.00  0.00     0.197 C 
HETATM    6  C   UNL     1      46.890  39.606  47.049  1.00  0.00     0.263 C 
ENDROOT
BRANCH   3   7
HETATM    7  C   UNL     1      44.442  42.202  46.174  1.00  0.00     0.178 C 
BRANCH   7   8
HETATM    8  S   UNL     1      44.581  43.562  45.059  1.00  0.00     0.118 S 
HETATM    9  O   UNL     1      43.460  44.415  45.451  1.00  0.00    -0.594 OA
HETATM   10  O   UNL     1      45.899  44.108  45.366  1.00  0.00    -0.594 OA
HETATM   11  O   UNL     1      44.455  42.942  43.745  1.00  0.00    -0.594 OA
ENDBRANCH   7   8
ENDBRANCH   3   7
BRANCH   2  12
HETATM   12  O   UNL     1      44.128  39.906  43.938  1.00  0.00    -0.380 OA
HETATM   13  H   UNL     1      43.144  40.034  43.956  1.00  0.00     0.211 HD
ENDBRANCH   2  12
BRANCH   6  14
HETATM   14  O   UNL     1      47.973  39.912  46.179  1.00  0.00    -0.359 OA
HETATM   15  H   UNL     1      48.132  40.863  46.318  1.00  0.00     0.213 HD
ENDBRANCH   6  14
BRANCH   4  16
HETATM   16  O   UNL     1      44.725  37.405  44.880  1.00  0.00    -0.380 OA
HETATM   17  H   UNL     1      43.861  37.574  45.310  1.00  0.00     0.211 HD
ENDBRANCH   4  16
BRANCH   5  18
HETATM   18  O   UNL     1      47.174  37.255  46.513  1.00  0.00    -0.378 OA
HETATM   19  H   UNL     1      47.701  37.325  47.332  1.00  0.00     0.211 HD
ENDBRANCH   5  18
TORSDOF 6
ENDMDL
