MODEL 1
REMARK VINA RESULT:    -5.876      0.000      0.000
REMARK INTER + INTRA:          -7.680
REMARK INTER:                  -7.250
REMARK INTRA:                  -0.430
REMARK UNBOUND:                -0.430
REMARK  6 active torsions:
REMARK  status: ('A' for Active; 'I' for Inactive)
REMARK    1  A    between atoms: S_1  and  C_15 
REMARK    2  A    between atoms: O_3  and  C_10 
REMARK    3  A    between atoms: O_4  and  C_12 
REMARK    4  A    between atoms: O_5  and  C_13 
REMARK    5  A    between atoms: O_6  and  C_14 
REMARK    6  A    between atoms: C_11  and  C_15 
ROOT
HETATM    1  O   UNL     1      44.011  42.933  43.813  1.00  0.00    -0.328 OA
HETATM    2  C   UNL     1      44.276  43.150  46.251  1.00  0.00     0.168 C 
HETATM    3  C   UNL     1      44.645  42.346  44.980  1.00  0.00     0.166 C 
HETATM    4  C   UNL     1      44.539  44.654  46.048  1.00  0.00     0.172 C 
HETATM    5  C   UNL     1      43.897  45.179  44.764  1.00  0.00     0.197 C 
HETATM    6  C   UNL     1      44.328  44.292  43.589  1.00  0.00     0.263 C 
ENDROOT
BRANCH   3   7
HETATM    7  C   UNL     1      44.148  40.901  44.990  1.00  0.00     0.178 C 
BRANCH   7   8
HETATM    8  S   UNL     1      45.280  39.745  45.694  1.00  0.00     0.118 S 
HETATM    9  O   UNL     1      44.908  38.491  45.040  1.00  0.00    -0.594 OA
HETATM   10  O   UNL     1      46.581  40.276  45.301  1.00  0.00    -0.594 OA
HETATM   11  O   UNL     1      44.989  39.807  47.122  1.00  0.00    -0.594 OA
ENDBRANCH   7   8
ENDBRANCH   3   7
BRANCH   2  12
HETATM   12  O   UNL     1      45.018  42.816  47.429  1.00  0.00    -0.380 OA
HETATM   13  H   UNL     1      45.479  41.950  47.280  1.00  0.00     0.211 HD
ENDBRANCH   2  12
BRANCH   6  14
HETATM   14  O   UNL     1      45.721  44.440  43.346  1.00  0.00    -0.359 OA
HETATM   15  H   UNL     1      46.013  45.093  44.006  1.00  0.00     0.213 HD
ENDBRANCH   6  14
BRANCH   4  16
HETATM   16  O   UNL     1      44.033  45.361  47.196  1.00  0.00    -0.380 OA
HETATM   17  H   UNL     1      43.631  44.653  47.742  1.00  0.00     0.211 HD
ENDBRANCH   4  16
BRANCH   5  18
HETATM   18  O   UNL     1      44.288  46.540  44.507  1.00  0.00    -0.378 OA
HETATM   19  H   UNL     1      43.807  46.794  43.696  1.00  0.00     0.211 HD
ENDBRANCH   5  18
TORSDOF 6
ENDMDL
MODEL 2
REMARK VINA RESULT:    -5.532      1.517      2.767
REMARK INTER + INTRA:          -7.256
REMARK INTER:                  -6.806
REMARK INTRA:                  -0.450
REMARK UNBOUND:                -0.430
REMARK  6 active torsions:
REMARK  status: ('A' for Active; 'I' for Inactive)
REMARK    1  A    between atoms: S_1  and  C_15 
REMARK    2  A    between atoms: O_3  and  C_10 
REMARK    3  A    between atoms: O_4  and  C_12 
REMARK    4  A    between atoms: O_5  and  C_13 
REMARK    5  A    between atoms: O_6  and  C_14 
REMARK    6  A    between atoms: C_11  and  C_15 
ROOT
HETATM    1  O   UNL     1      45.010  44.403  46.013  1.00  0.00    -0.328 OA
HETATM    2  C   UNL     1      44.531  42.716  44.285  1.00  0.00     0.168 C 
HETATM    3  C   UNL     1      44.579  43.032  45.800  1.00  0.00     0.166 C 
HETATM    4  C   UNL     1      43.722  43.783  43.525  1.00  0.00     0.172 C 
HETATM    5  C   UNL     1      44.190  45.200  43.856  1.00  0.00     0.197 C 
HETATM    6  C   UNL     1      44.207  45.379  45.379  1.00  0.00     0.263 C 
ENDROOT
BRANCH   3   7
HETATM    7  C   UNL     1      45.594  42.196  46.580  1.00  0.00     0.178 C 
BRANCH   7   8
HETATM    8  S   UNL     1      44.989  40.627  47.114  1.00  0.00     0.118 S 
HETATM    9  O   UNL     1      45.495  39.719  46.085  1.00  0.00    -0.594 OA
HETATM   10  O   UNL     1      45.604  40.465  48.427  1.00  0.00    -0.594 OA
HETATM   11  O   UNL     1      43.541  40.804  47.123  1.00  0.00    -0.594 OA
ENDBRANCH   7   8
ENDBRANCH   3   7
BRANCH   2  12
HETATM   12  O   UNL     1      43.904  41.478  43.933  1.00  0.00    -0.380 OA
HETATM   13  H   UNL     1      43.280  41.220  44.660  1.00  0.00     0.211 HD
ENDBRANCH   2  12
BRANCH   6  14
HETATM   14  O   UNL     1      42.882  45.340  45.895  1.00  0.00    -0.359 OA
HETATM   15  H   UNL     1      42.574  44.438  45.699  1.00  0.00     0.213 HD
ENDBRANCH   6  14
BRANCH   4  16
HETATM   16  O   UNL     1      43.844  43.524  42.113  1.00  0.00    -0.380 OA
HETATM   17  H   UNL     1      42.920  43.364  41.829  1.00  0.00     0.211 HD
ENDBRANCH   4  16
BRANCH   5  18
HETATM   18  O   UNL     1      43.321  46.185  43.267  1.00  0.00    -0.378 OA
HETATM   19  H   UNL     1      43.853  46.603  42.563  1.00  0.00     0.211 HD
ENDBRANCH   5  18
TORSDOF 6
ENDMDL
MODEL 3
REMARK VINA RESULT:    -5.085      2.341      4.997
REMARK INTER + INTRA:          -6.705
REMARK INTER:                  -6.283
REMARK INTRA:                  -0.422
REMARK UNBOUND:                -0.430
REMARK  6 active torsions:
REMARK  status: ('A' for Active; 'I' for Inactive)
REMARK    1  A    between atoms: S_1  and  C_15 
REMARK    2  A    between atoms: O_3  and  C_10 
REMARK    3  A    between atoms: O_4  and  C_12 
REMARK    4  A    between atoms: O_5  and  C_13 
REMARK    5  A    between atoms: O_6  and  C_14 
REMARK    6  A    between atoms: C_11  and  C_15 
ROOT
HETATM    1  O   UNL     1      44.313  40.253  46.107  1.00  0.00    -0.328 OA
HETATM    2  C   UNL     1      45.742  42.143  46.777  1.00  0.00     0.168 C 
HETATM    3  C   UNL     1      44.414  41.702  46.113  1.00  0.00     0.166 C 
HETATM    4  C   UNL     1      45.923  41.468  48.148  1.00  0.00     0.172 C 
HETATM    5  C   UNL     1      45.733  39.953  48.070  1.00  0.00     0.197 C 
HETATM    6  C   UNL     1      44.396  39.650  47.383  1.00  0.00     0.263 C 
ENDROOT
BRANCH   3   7
HETATM    7  C   UNL     1      44.294  42.092  44.639  1.00  0.00     0.178 C 
BRANCH   7   8
HETATM    8  S   UNL     1      43.953  43.800  44.363  1.00  0.00     0.118 S 
HETATM    9  O   UNL     1      45.277  44.349  44.071  1.00  0.00    -0.594 OA
HETATM   10  O   UNL     1      43.039  43.775  43.226  1.00  0.00    -0.594 OA
HETATM   11  O   UNL     1      43.366  44.241  45.623  1.00  0.00    -0.594 OA
ENDBRANCH   7   8
ENDBRANCH   3   7
BRANCH   2  12
HETATM   12  O   UNL     1      45.858  43.543  47.052  1.00  0.00    -0.380 OA
HETATM   13  H   UNL     1      45.209  44.034  46.484  1.00  0.00     0.211 HD
ENDBRANCH   2  12
BRANCH   6  14
HETATM   14  O   UNL     1      43.314  40.077  48.202  1.00  0.00    -0.359 OA
HETATM   15  H   UNL     1      43.560  40.978  48.475  1.00  0.00     0.213 HD
ENDBRANCH   6  14
BRANCH   4  16
HETATM   16  O   UNL     1      47.237  41.791  48.642  1.00  0.00    -0.380 OA
HETATM   17  H   UNL     1      47.670  40.915  48.731  1.00  0.00     0.211 HD
ENDBRANCH   4  16
BRANCH   5  18
HETATM   18  O   UNL     1      45.744  39.360  49.382  1.00  0.00    -0.378 OA
HETATM   19  H   UNL     1      46.595  39.634  49.777  1.00  0.00     0.211 HD
ENDBRANCH   5  18
TORSDOF 6
ENDMDL
MODEL 4
REMARK VINA RESULT:    -5.011      1.346      2.719
REMARK INTER + INTRA:          -6.613
REMARK INTER:                  -6.282
REMARK INTRA:                  -0.332
REMARK UNBOUND:                -0.430
REMARK  6 active torsions:
REMARK  status: ('A' for Active; 'I' for Inactive)
REMARK    1  A    between atoms: S_1  and  C_15 
REMARK    2  A    between atoms: O_3  and  C_10 
REMARK    3  A    between atoms: O_4  and  C_12 
REMARK    4  A    between atoms: O_5  and  C_13 
REMARK    5  A    between atoms: O_6  and  C_14 
REMARK    6  A    between atoms: C_11  and  C_15 
ROOT
HETATM    1  O   UNL     1      44.572  43.061  47.180  1.00  0.00    -0.328 OA
HETATM    2  C   UNL     1      45.062  42.731  44.790  1.00  0.00     0.168 C 
HETATM    3  C   UNL     1      44.375  42.163  46.055  1.00  0.00     0.166 C 
HETATM    4  C   UNL     1      44.643  44.192  44.544  1.00  0.00     0.172 C 
HETATM    5  C   UNL     1      44.815  45.055  45.794  1.00  0.00     0.197 C 
HETATM    6  C   UNL     1      44.105  44.379  46.973  1.00  0.00     0.263 C 
ENDROOT
BRANCH   3   7
HETATM    7  C   UNL     1      44.952  40.831  46.534  1.00  0.00     0.178 C 
BRANCH   7   8
HETATM    8  S   UNL     1      44.025  39.415  46.038  1.00  0.00     0.118 S 
HETATM    9  O   UNL     1      42.839  39.492  46.889  1.00  0.00    -0.594 OA
HETATM   10  O   UNL     1      43.777  39.662  44.621  1.00  0.00    -0.594 OA
HETATM   11  O   UNL     1      44.921  38.300  46.326  1.00  0.00    -0.594 OA
ENDBRANCH   7   8
ENDBRANCH   3   7
BRANCH   2  12
HETATM   12  O   UNL     1      44.749  42.061  43.564  1.00  0.00    -0.380 OA
HETATM   13  H   UNL     1      44.209  41.254  43.772  1.00  0.00     0.211 HD
ENDBRANCH   2  12
BRANCH   6  14
HETATM   14  O   UNL     1      42.698  44.377  46.765  1.00  0.00    -0.359 OA
HETATM   15  H   UNL     1      42.478  45.311  46.596  1.00  0.00     0.213 HD
ENDBRANCH   6  14
BRANCH   4  16
HETATM   16  O   UNL     1      45.429  44.712  43.454  1.00  0.00    -0.380 OA
HETATM   17  H   UNL     1      44.817  44.668  42.690  1.00  0.00     0.211 HD
ENDBRANCH   4  16
BRANCH   5  18
HETATM   18  O   UNL     1      44.268  46.372  45.595  1.00  0.00    -0.378 OA
HETATM   19  H   UNL     1      44.040  46.411  44.646  1.00  0.00     0.211 HD
ENDBRANCH   5  18
TORSDOF 6
ENDMDL
MODEL 5
REMARK VINA RESULT:    -4.989     10.018     11.639
REMARK INTER + INTRA:          -6.585
REMARK INTER:                  -6.394
REMARK INTRA:                  -0.191
REMARK UNBOUND:                -0.430
REMARK  6 active torsions:
REMARK  status: ('A' for Active; 'I' for Inactive)
REMARK    1  A    between atoms: S_1  and  C_15 
REMARK    2  A    between atoms: O_3  and  C_10 
REMARK    3  A    between atoms: O_4  and  C_12 
REMARK    4  A    between atoms: O_5  and  C_13 
REMARK    5  A    between atoms: O_6  and  C_14 
REMARK    6  A    between atoms: C_11  and  C_15 
ROOT
HETATM    1  O   UNL     1      36.994  43.664  54.485  1.00  0.00    -0.328 OA
HETATM    2  C   UNL     1      38.295  42.637  52.664  1.00  0.00     0.168 C 
HETATM    3  C   UNL     1      36.989  43.367  53.063  1.00  0.00     0.166 C 
HETATM    4  C   UNL     1      39.531  43.405  53.168  1.00  0.00     0.172 C 
HETATM    5  C   UNL     1      39.428  43.740  54.655  1.00  0.00     0.197 C 
HETATM    6  C   UNL     1      38.091  44.442  54.921  1.00  0.00     0.263 C 
ENDROOT
BRANCH   3   7
HETATM    7  C   UNL     1      35.722  42.535  52.860  1.00  0.00     0.178 C 
BRANCH   7   8
HETATM    8  S   UNL     1      34.344  43.445  52.240  1.00  0.00     0.118 S 
HETATM    9  O   UNL     1      34.144  42.863  50.914  1.00  0.00    -0.594 OA
HETATM   10  O   UNL     1      33.290  43.145  53.204  1.00  0.00    -0.594 OA
HETATM   11  O   UNL     1      34.816  44.825  52.244  1.00  0.00    -0.594 OA
ENDBRANCH   7   8
ENDBRANCH   3   7
BRANCH   2  12
HETATM   12  O   UNL     1      38.515  42.494  51.257  1.00  0.00    -0.380 OA
HETATM   13  H   UNL     1      39.488  42.374  51.098  1.00  0.00     0.211 HD
ENDBRANCH   2  12
BRANCH   6  14
HETATM   14  O   UNL     1      38.072  45.718  54.293  1.00  0.00    -0.359 OA
HETATM   15  H   UNL     1      38.565  45.586  53.463  1.00  0.00     0.213 HD
ENDBRANCH   6  14
BRANCH   4  16
HETATM   16  O   UNL     1      40.699  42.603  52.906  1.00  0.00    -0.380 OA
HETATM   17  H   UNL     1      40.975  42.304  53.798  1.00  0.00     0.211 HD
ENDBRANCH   4  16
BRANCH   5  18
HETATM   18  O   UNL     1      40.510  44.594  55.070  1.00  0.00    -0.378 OA
HETATM   19  H   UNL     1      40.479  44.588  56.047  1.00  0.00     0.211 HD
ENDBRANCH   5  18
TORSDOF 6
ENDMDL
MODEL 6
REMARK VINA RESULT:    -4.868      2.040      5.082
REMARK INTER + INTRA:          -6.436
REMARK INTER:                  -6.019
REMARK INTRA:                  -0.418
REMARK UNBOUND:                -0.430
REMARK  6 active torsions:
REMARK  status: ('A' for Active; 'I' for Inactive)
REMARK    1  A    between atoms: S_1  and  C_15 
REMARK    2  A    between atoms: O_3  and  C_10 
REMARK    3  A    between atoms: O_4  and  C_12 
REMARK    4  A    between atoms: O_5  and  C_13 
REMARK    5  A    between atoms: O_6  and  C_14 
REMARK    6  A    between atoms: C_11  and  C_15 
ROOT
HETATM    1  O   UNL     1      44.610  42.676  46.861  1.00  0.00    -0.328 OA
HETATM    2  C   UNL     1      44.556  41.040  45.022  1.00  0.00     0.168 C 
HETATM    3  C   UNL     1      44.783  42.516  45.428  1.00  0.00     0.166 C 
HETATM    4  C   UNL     1      45.400  40.092  45.893  1.00  0.00     0.172 C 
HETATM    5  C   UNL     1      45.215  40.369  47.385  1.00  0.00     0.197 C 
HETATM    6  C   UNL     1      45.452  41.861  47.652  1.00  0.00     0.263 C 
ENDROOT
BRANCH   3   7
HETATM    7  C   UNL     1      43.777  43.493  44.818  1.00  0.00     0.178 C 
BRANCH   7   8
HETATM    8  S   UNL     1      44.316  44.256  43.322  1.00  0.00     0.118 S 
HETATM    9  O   UNL     1      43.831  43.332  42.297  1.00  0.00    -0.594 OA
HETATM   10  O   UNL     1      43.640  45.548  43.347  1.00  0.00    -0.594 OA
HETATM   11  O   UNL     1      45.767  44.310  43.468  1.00  0.00    -0.594 OA
ENDBRANCH   7   8
ENDBRANCH   3   7
BRANCH   2  12
HETATM   12  O   UNL     1      44.921  40.706  43.679  1.00  0.00    -0.380 OA
HETATM   13  H   UNL     1      45.155  41.541  43.196  1.00  0.00     0.211 HD
ENDBRANCH   2  12
BRANCH   6  14
HETATM   14  O   UNL     1      46.817  42.191  47.421  1.00  0.00    -0.359 OA
HETATM   15  H   UNL     1      47.151  42.458  48.296  1.00  0.00     0.213 HD
ENDBRANCH   6  14
BRANCH   4  16
HETATM   16  O   UNL     1      45.030  38.736  45.578  1.00  0.00    -0.380 OA
HETATM   17  H   UNL     1      44.930  38.747  44.602  1.00  0.00     0.211 HD
ENDBRANCH   4  16
BRANCH   5  18
HETATM   18  O   UNL     1      46.130  39.589  48.176  1.00  0.00    -0.378 OA
HETATM   19  H   UNL     1      45.880  39.767  49.103  1.00  0.00     0.211 HD
ENDBRANCH   5  18
TORSDOF 6
ENDMDL
MODEL 7
REMARK VINA RESULT:    -4.729      2.624      5.524
REMARK INTER + INTRA:          -6.265
REMARK INTER:                  -6.066
REMARK INTRA:                  -0.199
REMARK UNBOUND:                -0.430
REMARK  6 active torsions:
REMARK  status: ('A' for Active; 'I' for Inactive)
REMARK    1  A    between atoms: S_1  and  C_15 
REMARK    2  A    between atoms: O_3  and  C_10 
REMARK    3  A    between atoms: O_4  and  C_12 
REMARK    4  A    between atoms: O_5  and  C_13 
REMARK    5  A    between atoms: O_6  and  C_14 
REMARK    6  A    between atoms: C_11  and  C_15 
ROOT
HETATM    1  O   UNL     1      44.787  41.031  47.368  1.00  0.00    -0.328 OA
HETATM    2  C   UNL     1      45.937  39.511  45.810  1.00  0.00     0.168 C 
HETATM    3  C   UNL     1      45.375  40.934  46.044  1.00  0.00     0.166 C 
HETATM    4  C   UNL     1      46.858  39.085  46.968  1.00  0.00     0.172 C 
HETATM    5  C   UNL     1      46.193  39.282  48.330  1.00  0.00     0.197 C 
HETATM    6  C   UNL     1      45.668  40.719  48.429  1.00  0.00     0.263 C 
ENDROOT
BRANCH   3   7
HETATM    7  C   UNL     1      44.234  41.318  45.100  1.00  0.00     0.178 C 
BRANCH   7   8
HETATM    8  S   UNL     1      44.107  43.047  44.776  1.00  0.00     0.118 S 
HETATM    9  O   UNL     1      45.487  43.505  44.926  1.00  0.00    -0.594 OA
HETATM   10  O   UNL     1      43.594  43.091  43.411  1.00  0.00    -0.594 OA
HETATM   11  O   UNL     1      43.184  43.520  45.802  1.00  0.00    -0.594 OA
ENDBRANCH   7   8
ENDBRANCH   3   7
BRANCH   2  12
HETATM   12  O   UNL     1      46.744  39.352  44.638  1.00  0.00    -0.380 OA
HETATM   13  H   UNL     1      46.168  39.027  43.898  1.00  0.00     0.211 HD
ENDBRANCH   2  12
BRANCH   6  14
HETATM   14  O   UNL     1      46.752  41.639  48.456  1.00  0.00    -0.359 OA
HETATM   15  H   UNL     1      47.434  41.191  48.989  1.00  0.00     0.213 HD
ENDBRANCH   6  14
BRANCH   4  16
HETATM   16  O   UNL     1      47.221  37.705  46.773  1.00  0.00    -0.380 OA
HETATM   17  H   UNL     1      46.401  37.218  47.000  1.00  0.00     0.211 HD
ENDBRANCH   4  16
BRANCH   5  18
HETATM   18  O   UNL     1      47.121  39.034  49.402  1.00  0.00    -0.378 OA
HETATM   19  H   UNL     1      46.621  38.507  50.054  1.00  0.00     0.211 HD
ENDBRANCH   5  18
TORSDOF 6
ENDMDL
MODEL 8
REMARK VINA RESULT:    -4.723     10.376     11.686
REMARK INTER + INTRA:          -6.257
REMARK INTER:                  -5.838
REMARK INTRA:                  -0.420
REMARK UNBOUND:                -0.430
REMARK  6 active torsions:
REMARK  status: ('A' for Active; 'I' for Inactive)
REMARK    1  A    between atoms: S_1  and  C_15 
REMARK    2  A    between atoms: O_3  and  C_10 
REMARK    3  A    between atoms: O_4  and  C_12 
REMARK    4  A    between atoms: O_5  and  C_13 
REMARK    5  A    between atoms: O_6  and  C_14 
REMARK    6  A    between atoms: C_11  and  C_15 
ROOT
HETATM    1  O   UNL     1      36.271  41.945  53.146  1.00  0.00    -0.328 OA
HETATM    2  C   UNL     1      36.525  44.127  54.258  1.00  0.00     0.168 C 
HETATM    3  C   UNL     1      37.163  43.078  53.314  1.00  0.00     0.166 C 
HETATM    4  C   UNL     1      35.096  44.479  53.805  1.00  0.00     0.172 C 
HETATM    5  C   UNL     1      34.242  43.231  53.584  1.00  0.00     0.197 C 
HETATM    6  C   UNL     1      34.988  42.271  52.648  1.00  0.00     0.263 C 
ENDROOT
BRANCH   3   7
HETATM    7  C   UNL     1      38.455  42.461  53.849  1.00  0.00     0.178 C 
BRANCH   7   8
HETATM    8  S   UNL     1      39.928  43.131  53.147  1.00  0.00     0.118 S 
HETATM    9  O   UNL     1      40.959  42.208  53.621  1.00  0.00    -0.594 OA
HETATM   10  O   UNL     1      39.668  43.070  51.713  1.00  0.00    -0.594 OA
HETATM   11  O   UNL     1      39.996  44.475  53.710  1.00  0.00    -0.594 OA
ENDBRANCH   7   8
ENDBRANCH   3   7
BRANCH   2  12
HETATM   12  O   UNL     1      37.197  45.388  54.323  1.00  0.00    -0.380 OA
HETATM   13  H   UNL     1      37.650  45.552  53.455  1.00  0.00     0.211 HD
ENDBRANCH   2  12
BRANCH   6  14
HETATM   14  O   UNL     1      35.093  42.835  51.347  1.00  0.00    -0.359 OA
HETATM   15  H   UNL     1      36.050  42.947  51.208  1.00  0.00     0.213 HD
ENDBRANCH   6  14
BRANCH   4  16
HETATM   16  O   UNL     1      34.502  45.331  54.803  1.00  0.00    -0.380 OA
HETATM   17  H   UNL     1      35.178  45.358  55.513  1.00  0.00     0.211 HD
ENDBRANCH   4  16
BRANCH   5  18
HETATM   18  O   UNL     1      32.968  43.569  53.007  1.00  0.00    -0.378 OA
HETATM   19  H   UNL     1      32.348  43.600  53.761  1.00  0.00     0.211 HD
ENDBRANCH   5  18
TORSDOF 6
ENDMDL
MODEL 9
REMARK VINA RESULT:    -4.559      1.425      1.756
REMARK INTER + INTRA:          -6.055
REMARK INTER:                  -5.581
REMARK INTRA:                  -0.475
REMARK UNBOUND:                -0.430
REMARK  6 active torsions:
REMARK  status: ('A' for Active; 'I' for Inactive)
REMARK    1  A    between atoms: S_1  and  C_15 
REMARK    2  A    between atoms: O_3  and  C_10 
REMARK    3  A    between atoms: O_4  and  C_12 
REMARK    4  A    between atoms: O_5  and  C_13 
REMARK    5  A    between atoms: O_6  and  C_14 
REMARK    6  A    between atoms: C_11  and  C_15 
ROOT
HETATM    1  O   UNL     1      43.734  42.374  45.163  1.00  0.00    -0.328 OA
HETATM    2  C   UNL     1      45.845  42.473  46.426  1.00  0.00     0.168 C 
HETATM    3  C   UNL     1      44.964  41.657  45.449  1.00  0.00     0.166 C 
HETATM    4  C   UNL     1      46.030  43.918  45.926  1.00  0.00     0.172 C 
HETATM    5  C   UNL     1      44.696  44.579  45.581  1.00  0.00     0.197 C 
HETATM    6  C   UNL     1      43.917  43.669  44.623  1.00  0.00     0.263 C 
ENDROOT
BRANCH   3   7
HETATM    7  C   UNL     1      44.492  40.314  46.007  1.00  0.00     0.178 C 
BRANCH   7   8
HETATM    8  S   UNL     1      45.656  39.001  45.826  1.00  0.00     0.118 S 
HETATM    9  O   UNL     1      46.500  39.467  44.727  1.00  0.00    -0.594 OA
HETATM   10  O   UNL     1      46.315  38.962  47.127  1.00  0.00    -0.594 OA
HETATM   11  O   UNL     1      44.822  37.845  45.517  1.00  0.00    -0.594 OA
ENDBRANCH   7   8
ENDBRANCH   3   7
BRANCH   2  12
HETATM   12  O   UNL     1      47.178  41.987  46.607  1.00  0.00    -0.380 OA
HETATM   13  H   UNL     1      47.813  42.649  46.226  1.00  0.00     0.211 HD
ENDBRANCH   2  12
BRANCH   6  14
HETATM   14  O   UNL     1      44.581  43.591  43.368  1.00  0.00    -0.359 OA
HETATM   15  H   UNL     1      43.984  44.049  42.750  1.00  0.00     0.213 HD
ENDBRANCH   6  14
BRANCH   4  16
HETATM   16  O   UNL     1      46.719  44.665  46.946  1.00  0.00    -0.380 OA
HETATM   17  H   UNL     1      47.532  44.140  47.105  1.00  0.00     0.211 HD
ENDBRANCH   4  16
BRANCH   5  18
HETATM   18  O   UNL     1      44.897  45.864  44.964  1.00  0.00    -0.378 OA
HETATM   19  H   UNL     1      44.787  45.706  44.006  1.00  0.00     0.211 HD
ENDBRANCH   5  18
TORSDOF 6
ENDMDL
MODEL 10
REMARK VINA RESULT:    -4.558     11.652     13.142
REMARK INTER + INTRA:          -6.054
REMARK INTER:                  -5.839
REMARK INTRA:                  -0.215
REMARK UNBOUND:                -0.430
REMARK  6 active torsions:
REMARK  status: ('A' for Active; 'I' for Inactive)
REMARK    1  A    between atoms: S_1  and  C_15 
REMARK    2  A    between atoms: O_3  and  C_10 
REMARK    3  A    between atoms: O_4  and  C_12 
REMARK    4  A    between atoms: O_5  and  C_13 
REMARK    5  A    between atoms: O_6  and  C_14 
REMARK    6  A    between atoms: C_11  and  C_15 
ROOT
HETATM    1  O   UNL     1      36.048  43.310  54.979  1.00  0.00    -0.328 OA
HETATM    2  C   UNL     1      35.973  42.296  52.737  1.00  0.00     0.168 C 
HETATM    3  C   UNL     1      35.186  43.044  53.841  1.00  0.00     0.166 C 
HETATM    4  C   UNL     1      37.288  43.026  52.406  1.00  0.00     0.172 C 
HETATM    5  C   UNL     1      38.104  43.331  53.662  1.00  0.00     0.197 C 
HETATM    6  C   UNL     1      37.211  44.055  54.677  1.00  0.00     0.263 C 
ENDROOT
BRANCH   3   7
HETATM    7  C   UNL     1      34.025  42.243  54.431  1.00  0.00     0.178 C 
BRANCH   7   8
HETATM    8  S   UNL     1      32.489  43.109  54.469  1.00  0.00     0.118 S 
HETATM    9  O   UNL     1      32.599  43.907  55.690  1.00  0.00    -0.594 OA
HETATM   10  O   UNL     1      32.513  43.881  53.232  1.00  0.00    -0.594 OA
HETATM   11  O   UNL     1      31.495  42.042  54.517  1.00  0.00    -0.594 OA
ENDBRANCH   7   8
ENDBRANCH   3   7
BRANCH   2  12
HETATM   12  O   UNL     1      35.306  42.178  51.476  1.00  0.00    -0.380 OA
HETATM   13  H   UNL     1      35.988  42.050  50.766  1.00  0.00     0.211 HD
ENDBRANCH   2  12
BRANCH   6  14
HETATM   14  O   UNL     1      36.859  45.345  54.190  1.00  0.00    -0.359 OA
HETATM   15  H   UNL     1      37.467  45.950  54.651  1.00  0.00     0.213 HD
ENDBRANCH   6  14
BRANCH   4  16
HETATM   16  O   UNL     1      38.044  42.206  51.495  1.00  0.00    -0.380 OA
HETATM   17  H   UNL     1      37.516  42.235  50.669  1.00  0.00     0.211 HD
ENDBRANCH   4  16
BRANCH   5  18
HETATM   18  O   UNL     1      39.244  44.153  53.352  1.00  0.00    -0.378 OA
HETATM   19  H   UNL     1      39.233  44.247  52.380  1.00  0.00     0.211 HD
ENDBRANCH   5  18
TORSDOF 6
ENDMDL
