MODEL 1
REMARK VINA RESULT:    -5.236      0.000      0.000
REMARK INTER + INTRA:          -9.185
REMARK INTER:                  -7.657
REMARK INTRA:                  -1.528
REMARK UNBOUND:                -1.501
REMARK  12 active torsions:
REMARK  status: ('A' for Active; 'I' for Inactive)
REMARK    1  A    between atoms: O_1  and  C_12 
REMARK    2  A    between atoms: O_1  and  C_14 
REMARK    3  A    between atoms: O_4  and  C_13 
REMARK    4  A    between atoms: O_5  and  C_16 
REMARK    5  A    between atoms: O_6  and  C_17 
REMARK    6  A    between atoms: O_7  and  C_18 
REMARK    7  A    between atoms: O_8  and  C_19 
REMARK    8  A    between atoms: O_9  and  C_21 
REMARK    9  A    between atoms: O_10  and  C_22 
REMARK   10  A    between atoms: O_11  and  C_23 
REMARK   11  A    between atoms: C_15  and  C_22 
REMARK   12  A    between atoms: C_20  and  C_23 
ROOT
HETATM    1  O   UNL     1     -15.433 -13.018  12.779  1.00  0.00    -0.326 OA
ENDROOT
BRANCH   1   2
HETATM    2  C   UNL     1     -14.496 -13.979  13.309  1.00  0.00     0.177 C 
HETATM    3  C   UNL     1     -13.059 -13.627  12.869  1.00  0.00     0.172 C 
HETATM    4  C   UNL     1     -12.011 -14.426  13.653  1.00  0.00     0.197 C 
HETATM    5  C   UNL     1     -12.297 -14.370  15.160  1.00  0.00     0.263 C 
HETATM    6  O   UNL     1     -13.616 -14.797  15.453  1.00  0.00    -0.327 OA
HETATM    7  C   UNL     1     -14.594 -13.938  14.844  1.00  0.00     0.177 C 
BRANCH   3   8
HETATM    8  O   UNL     1     -12.897 -13.908  11.466  1.00  0.00    -0.380 OA
HETATM    9  H   UNL     1     -13.744 -13.649  11.050  1.00  0.00     0.211 HD
ENDBRANCH   3   8
BRANCH   4  10
HETATM   10  O   UNL     1     -10.696 -13.900  13.403  1.00  0.00    -0.378 OA
HETATM   11  H   UNL     1     -10.835 -12.964  13.161  1.00  0.00     0.211 HD
ENDBRANCH   4  10
BRANCH   5  12
HETATM   12  O   UNL     1     -11.393 -15.251  15.815  1.00  0.00    -0.359 OA
HETATM   13  H   UNL     1     -11.899 -15.641  16.546  1.00  0.00     0.213 HD
ENDBRANCH   5  12
BRANCH   7  14
HETATM   14  C   UNL     1     -15.971 -14.413  15.323  1.00  0.00     0.170 C 
BRANCH  14  15
HETATM   15  O   UNL     1     -16.895 -13.326  15.277  1.00  0.00    -0.380 OA
HETATM   16  H   UNL     1     -17.776 -13.732  15.163  1.00  0.00     0.211 HD
ENDBRANCH  14  15
ENDBRANCH   7  14
ENDBRANCH   1   2
BRANCH   1  17
HETATM   17  C   UNL     1     -16.233 -13.520  11.701  1.00  0.00     0.266 C 
HETATM   18  O   UNL     1     -15.539 -13.344  10.471  1.00  0.00    -0.326 OA
HETATM   19  C   UNL     1     -16.273 -13.895   9.354  1.00  0.00     0.176 C 
HETATM   20  C   UNL     1     -17.560 -13.080   9.158  1.00  0.00     0.170 C 
HETATM   21  C   UNL     1     -18.384 -13.140  10.460  1.00  0.00     0.172 C 
HETATM   22  C   UNL     1     -17.551 -12.723  11.678  1.00  0.00     0.197 C 
BRANCH  19  23
HETATM   23  C   UNL     1     -15.350 -13.846   8.134  1.00  0.00     0.170 C 
BRANCH  23  24
HETATM   24  O   UNL     1     -13.995 -13.722   8.572  1.00  0.00    -0.380 OA
HETATM   25  H   UNL     1     -13.424 -14.059   7.851  1.00  0.00     0.211 HD
ENDBRANCH  23  24
ENDBRANCH  19  23
BRANCH  20  26
HETATM   26  O   UNL     1     -17.229 -11.729   8.808  1.00  0.00    -0.380 OA
HETATM   27  H   UNL     1     -16.514 -11.418   9.387  1.00  0.00     0.211 HD
ENDBRANCH  20  26
BRANCH  21  28
HETATM   28  O   UNL     1     -19.554 -12.322  10.372  1.00  0.00    -0.380 OA
HETATM   29  H   UNL     1     -19.321 -11.474  10.797  1.00  0.00     0.211 HD
ENDBRANCH  21  28
BRANCH  22  30
HETATM   30  O   UNL     1     -18.321 -12.955  12.867  1.00  0.00    -0.378 OA
HETATM   31  H   UNL     1     -19.258 -12.858  12.607  1.00  0.00     0.211 HD
ENDBRANCH  22  30
ENDBRANCH   1  17
TORSDOF 12
ENDMDL
MODEL 2
REMARK VINA RESULT:    -5.167     36.513     38.308
REMARK INTER + INTRA:          -9.084
REMARK INTER:                  -7.832
REMARK INTRA:                  -1.252
REMARK UNBOUND:                -1.501
REMARK  12 active torsions:
REMARK  status: ('A' for Active; 'I' for Inactive)
REMARK    1  A    between atoms: O_1  and  C_12 
REMARK    2  A    between atoms: O_1  and  C_14 
REMARK    3  A    between atoms: O_4  and  C_13 
REMARK    4  A    between atoms: O_5  and  C_16 
REMARK    5  A    between atoms: O_6  and  C_17 
REMARK    6  A    between atoms: O_7  and  C_18 
REMARK    7  A    between atoms: O_8  and  C_19 
REMARK    8  A    between atoms: O_9  and  C_21 
REMARK    9  A    between atoms: O_10  and  C_22 
REMARK   10  A    between atoms: O_11  and  C_23 
REMARK   11  A    between atoms: C_15  and  C_22 
REMARK   12  A    between atoms: C_20  and  C_23 
ROOT
HETATM    1  O   UNL     1       0.668  15.379  -6.300  1.00  0.00    -0.326 OA
ENDROOT
BRANCH   1   2
HETATM    2  C   UNL     1       2.072  15.362  -5.971  1.00  0.00     0.177 C 
HETATM    3  C   UNL     1       2.699  16.751  -6.218  1.00  0.00     0.172 C 
HETATM    4  C   UNL     1       4.096  16.865  -5.596  1.00  0.00     0.197 C 
HETATM    5  C   UNL     1       4.089  16.367  -4.143  1.00  0.00     0.263 C 
HETATM    6  O   UNL     1       3.573  15.051  -4.049  1.00  0.00    -0.327 OA
HETATM    7  C   UNL     1       2.205  14.990  -4.484  1.00  0.00     0.177 C 
BRANCH   3   8
HETATM    8  O   UNL     1       2.806  16.992  -7.633  1.00  0.00    -0.380 OA
HETATM    9  H   UNL     1       3.015  16.122  -8.030  1.00  0.00     0.211 HD
ENDBRANCH   3   8
BRANCH   4  10
HETATM   10  O   UNL     1       4.542  18.232  -5.623  1.00  0.00    -0.378 OA
HETATM   11  H   UNL     1       3.973  18.701  -4.982  1.00  0.00     0.211 HD
ENDBRANCH   4  10
BRANCH   5  12
HETATM   12  O   UNL     1       5.431  16.350  -3.674  1.00  0.00    -0.359 OA
HETATM   13  H   UNL     1       5.859  15.618  -4.148  1.00  0.00     0.213 HD
ENDBRANCH   5  12
BRANCH   7  14
HETATM   14  C   UNL     1       1.714  13.560  -4.226  1.00  0.00     0.170 C 
BRANCH  14  15
HETATM   15  O   UNL     1       2.085  12.722  -5.320  1.00  0.00    -0.380 OA
HETATM   16  H   UNL     1       2.725  13.241  -5.846  1.00  0.00     0.211 HD
ENDBRANCH  14  15
ENDBRANCH   7  14
ENDBRANCH   1   2
BRANCH   1  17
HETATM   17  C   UNL     1       0.356  14.743  -7.547  1.00  0.00     0.266 C 
HETATM   18  O   UNL     1       0.002  15.729  -8.509  1.00  0.00    -0.326 OA
HETATM   19  C   UNL     1      -0.259  15.148  -9.807  1.00  0.00     0.176 C 
HETATM   20  C   UNL     1      -1.517  14.273  -9.712  1.00  0.00     0.170 C 
HETATM   21  C   UNL     1      -1.284  13.187  -8.643  1.00  0.00     0.172 C 
HETATM   22  C   UNL     1      -0.833  13.793  -7.308  1.00  0.00     0.197 C 
BRANCH  19  23
HETATM   23  C   UNL     1      -0.413  16.302 -10.800  1.00  0.00     0.170 C 
BRANCH  23  24
HETATM   24  O   UNL     1      -1.271  15.894 -11.869  1.00  0.00    -0.380 OA
HETATM   25  H   UNL     1      -1.440  14.935 -11.756  1.00  0.00     0.211 HD
ENDBRANCH  23  24
ENDBRANCH  19  23
BRANCH  20  26
HETATM   26  O   UNL     1      -2.652  15.090  -9.391  1.00  0.00    -0.380 OA
HETATM   27  H   UNL     1      -3.160  14.661  -8.683  1.00  0.00     0.211 HD
ENDBRANCH  20  26
BRANCH  21  28
HETATM   28  O   UNL     1      -2.457  12.395  -8.443  1.00  0.00    -0.380 OA
HETATM   29  H   UNL     1      -3.214  12.994  -8.592  1.00  0.00     0.211 HD
ENDBRANCH  21  28
BRANCH  22  30
HETATM   30  O   UNL     1      -0.478  12.728  -6.413  1.00  0.00    -0.378 OA
HETATM   31  H   UNL     1      -0.783  13.005  -5.528  1.00  0.00     0.211 HD
ENDBRANCH  22  30
ENDBRANCH   1  17
TORSDOF 12
ENDMDL
MODEL 3
REMARK VINA RESULT:    -5.037     37.399     39.417
REMARK INTER + INTRA:          -8.893
REMARK INTER:                  -7.393
REMARK INTRA:                  -1.501
REMARK UNBOUND:                -1.501
REMARK  12 active torsions:
REMARK  status: ('A' for Active; 'I' for Inactive)
REMARK    1  A    between atoms: O_1  and  C_12 
REMARK    2  A    between atoms: O_1  and  C_14 
REMARK    3  A    between atoms: O_4  and  C_13 
REMARK    4  A    between atoms: O_5  and  C_16 
REMARK    5  A    between atoms: O_6  and  C_17 
REMARK    6  A    between atoms: O_7  and  C_18 
REMARK    7  A    between atoms: O_8  and  C_19 
REMARK    8  A    between atoms: O_9  and  C_21 
REMARK    9  A    between atoms: O_10  and  C_22 
REMARK   10  A    between atoms: O_11  and  C_23 
REMARK   11  A    between atoms: C_15  and  C_22 
REMARK   12  A    between atoms: C_20  and  C_23 
ROOT
HETATM    1  O   UNL     1       2.310  15.580  -6.439  1.00  0.00    -0.326 OA
ENDROOT
BRANCH   1   2
HETATM    2  C   UNL     1       0.923  15.185  -6.468  1.00  0.00     0.177 C 
HETATM    3  C   UNL     1       0.350  15.344  -7.893  1.00  0.00     0.172 C 
HETATM    4  C   UNL     1      -1.010  14.651  -8.040  1.00  0.00     0.197 C 
HETATM    5  C   UNL     1      -0.960  13.223  -7.479  1.00  0.00     0.263 C 
HETATM    6  O   UNL     1      -0.501  13.209  -6.138  1.00  0.00    -0.327 OA
HETATM    7  C   UNL     1       0.841  13.711  -6.036  1.00  0.00     0.177 C 
BRANCH   3   8
HETATM    8  O   UNL     1       0.190  16.741  -8.201  1.00  0.00    -0.380 OA
HETATM    9  H   UNL     1      -0.664  16.999  -7.799  1.00  0.00     0.211 HD
ENDBRANCH   3   8
BRANCH   4  10
HETATM   10  O   UNL     1      -1.394  14.599  -9.425  1.00  0.00    -0.378 OA
HETATM   11  H   UNL     1      -2.282  15.003  -9.461  1.00  0.00     0.211 HD
ENDBRANCH   4  10
BRANCH   5  12
HETATM   12  O   UNL     1      -2.279  12.692  -7.499  1.00  0.00    -0.359 OA
HETATM   13  H   UNL     1      -2.680  13.034  -8.315  1.00  0.00     0.213 HD
ENDBRANCH   5  12
BRANCH   7  14
HETATM   14  C   UNL     1       1.278  13.538  -4.577  1.00  0.00     0.170 C 
BRANCH  14  15
HETATM   15  O   UNL     1       2.645  13.130  -4.531  1.00  0.00    -0.380 OA
HETATM   16  H   UNL     1       2.828  12.924  -3.594  1.00  0.00     0.211 HD
ENDBRANCH  14  15
ENDBRANCH   7  14
ENDBRANCH   1   2
BRANCH   1  17
HETATM   17  C   UNL     1       2.555  16.786  -5.703  1.00  0.00     0.266 C 
HETATM   18  O   UNL     1       2.503  17.901  -6.586  1.00  0.00    -0.326 OA
HETATM   19  C   UNL     1       2.677  19.154  -5.885  1.00  0.00     0.176 C 
HETATM   20  C   UNL     1       4.105  19.210  -5.322  1.00  0.00     0.170 C 
HETATM   21  C   UNL     1       4.314  18.004  -4.385  1.00  0.00     0.172 C 
HETATM   22  C   UNL     1       3.958  16.681  -5.075  1.00  0.00     0.197 C 
BRANCH  19  23
HETATM   23  C   UNL     1       2.388  20.278  -6.882  1.00  0.00     0.170 C 
BRANCH  23  24
HETATM   24  O   UNL     1       2.860  19.894  -8.176  1.00  0.00    -0.380 OA
HETATM   25  H   UNL     1       3.834  19.815  -8.118  1.00  0.00     0.211 HD
ENDBRANCH  23  24
ENDBRANCH  19  23
BRANCH  20  26
HETATM   26  O   UNL     1       5.050  19.207  -6.401  1.00  0.00    -0.380 OA
HETATM   27  H   UNL     1       5.400  18.307  -6.512  1.00  0.00     0.211 HD
ENDBRANCH  20  26
BRANCH  21  28
HETATM   28  O   UNL     1       5.658  17.949  -3.901  1.00  0.00    -0.380 OA
HETATM   29  H   UNL     1       6.074  17.186  -4.347  1.00  0.00     0.211 HD
ENDBRANCH  21  28
BRANCH  22  30
HETATM   30  O   UNL     1       4.018  15.623  -4.107  1.00  0.00    -0.378 OA
HETATM   31  H   UNL     1       3.803  16.031  -3.245  1.00  0.00     0.211 HD
ENDBRANCH  22  30
ENDBRANCH   1  17
TORSDOF 12
ENDMDL
MODEL 4
REMARK VINA RESULT:    -4.948     18.353     21.382
REMARK INTER + INTRA:          -8.763
REMARK INTER:                  -7.172
REMARK INTRA:                  -1.591
REMARK UNBOUND:                -1.501
REMARK  12 active torsions:
REMARK  status: ('A' for Active; 'I' for Inactive)
REMARK    1  A    between atoms: O_1  and  C_12 
REMARK    2  A    between atoms: O_1  and  C_14 
REMARK    3  A    between atoms: O_4  and  C_13 
REMARK    4  A    between atoms: O_5  and  C_16 
REMARK    5  A    between atoms: O_6  and  C_17 
REMARK    6  A    between atoms: O_7  and  C_18 
REMARK    7  A    between atoms: O_8  and  C_19 
REMARK    8  A    between atoms: O_9  and  C_21 
REMARK    9  A    between atoms: O_10  and  C_22 
REMARK   10  A    between atoms: O_11  and  C_23 
REMARK   11  A    between atoms: C_15  and  C_22 
REMARK   12  A    between atoms: C_20  and  C_23 
ROOT
HETATM    1  O   UNL     1      -7.201 -20.745  -5.828  1.00  0.00    -0.326 OA
ENDROOT
BRANCH   1   2
HETATM    2  C   UNL     1      -8.507 -20.182  -6.067  1.00  0.00     0.177 C 
HETATM    3  C   UNL     1      -9.040 -19.499  -4.789  1.00  0.00     0.172 C 
HETATM    4  C   UNL     1     -10.269 -18.629  -5.079  1.00  0.00     0.197 C 
HETATM    5  C   UNL     1     -10.020 -17.717  -6.289  1.00  0.00     0.263 C 
HETATM    6  O   UNL     1      -9.620 -18.462  -7.425  1.00  0.00    -0.327 OA
HETATM    7  C   UNL     1      -8.377 -19.145  -7.195  1.00  0.00     0.177 C 
BRANCH   3   8
HETATM    8  O   UNL     1      -9.402 -20.498  -3.818  1.00  0.00    -0.380 OA
HETATM    9  H   UNL     1      -8.729 -21.203  -3.908  1.00  0.00     0.211 HD
ENDBRANCH   3   8
BRANCH   4  10
HETATM   10  O   UNL     1     -10.584 -17.817  -3.934  1.00  0.00    -0.378 OA
HETATM   11  H   UNL     1     -10.583 -18.431  -3.175  1.00  0.00     0.211 HD
ENDBRANCH   4  10
BRANCH   5  12
HETATM   12  O   UNL     1     -11.240 -17.055  -6.602  1.00  0.00    -0.359 OA
HETATM   13  H   UNL     1     -11.783 -17.127  -5.801  1.00  0.00     0.213 HD
ENDBRANCH   5  12
BRANCH   7  14
HETATM   14  C   UNL     1      -7.979 -19.813  -8.517  1.00  0.00     0.170 C 
BRANCH  14  15
HETATM   15  O   UNL     1      -6.567 -19.706  -8.701  1.00  0.00    -0.380 OA
HETATM   16  H   UNL     1      -6.168 -19.982  -7.854  1.00  0.00     0.211 HD
ENDBRANCH  14  15
ENDBRANCH   7  14
ENDBRANCH   1   2
BRANCH   1  17
HETATM   17  C   UNL     1      -6.253 -19.807  -5.298  1.00  0.00     0.266 C 
HETATM   18  O   UNL     1      -5.323 -19.447  -6.313  1.00  0.00    -0.326 OA
HETATM   19  C   UNL     1      -4.381 -18.451  -5.852  1.00  0.00     0.176 C 
HETATM   20  C   UNL     1      -3.497 -19.073  -4.762  1.00  0.00     0.170 C 
HETATM   21  C   UNL     1      -4.403 -19.567  -3.616  1.00  0.00     0.172 C 
HETATM   22  C   UNL     1      -5.516 -20.489  -4.130  1.00  0.00     0.197 C 
BRANCH  19  23
HETATM   23  C   UNL     1      -3.580 -17.984  -7.070  1.00  0.00     0.170 C 
BRANCH  23  24
HETATM   24  O   UNL     1      -3.661 -18.976  -8.097  1.00  0.00    -0.380 OA
HETATM   25  H   UNL     1      -2.888 -18.849  -8.685  1.00  0.00     0.211 HD
ENDBRANCH  23  24
ENDBRANCH  19  23
BRANCH  20  26
HETATM   26  O   UNL     1      -2.724 -20.145  -5.319  1.00  0.00    -0.380 OA
HETATM   27  H   UNL     1      -1.883 -19.788  -5.651  1.00  0.00     0.211 HD
ENDBRANCH  20  26
BRANCH  21  28
HETATM   28  O   UNL     1      -3.644 -20.242  -2.609  1.00  0.00    -0.380 OA
HETATM   29  H   UNL     1      -4.095 -21.095  -2.459  1.00  0.00     0.211 HD
ENDBRANCH  21  28
BRANCH  22  30
HETATM   30  O   UNL     1      -6.412 -20.780  -3.047  1.00  0.00    -0.378 OA
HETATM   31  H   UNL     1      -7.009 -20.010  -2.975  1.00  0.00     0.211 HD
ENDBRANCH  22  30
ENDBRANCH   1  17
TORSDOF 12
ENDMDL
MODEL 5
REMARK VINA RESULT:    -4.882     29.956     33.016
REMARK INTER + INTRA:          -8.666
REMARK INTER:                  -7.060
REMARK INTRA:                  -1.606
REMARK UNBOUND:                -1.501
REMARK  12 active torsions:
REMARK  status: ('A' for Active; 'I' for Inactive)
REMARK    1  A    between atoms: O_1  and  C_12 
REMARK    2  A    between atoms: O_1  and  C_14 
REMARK    3  A    between atoms: O_4  and  C_13 
REMARK    4  A    between atoms: O_5  and  C_16 
REMARK    5  A    between atoms: O_6  and  C_17 
REMARK    6  A    between atoms: O_7  and  C_18 
REMARK    7  A    between atoms: O_8  and  C_19 
REMARK    8  A    between atoms: O_9  and  C_21 
REMARK    9  A    between atoms: O_10  and  C_22 
REMARK   10  A    between atoms: O_11  and  C_23 
REMARK   11  A    between atoms: C_15  and  C_22 
REMARK   12  A    between atoms: C_20  and  C_23 
ROOT
HETATM    1  O   UNL     1       2.631  -1.854 -11.660  1.00  0.00    -0.326 OA
ENDROOT
BRANCH   1   2
HETATM    2  C   UNL     1       1.810  -3.034 -11.553  1.00  0.00     0.177 C 
HETATM    3  C   UNL     1       1.477  -3.587 -12.956  1.00  0.00     0.172 C 
HETATM    4  C   UNL     1       0.878  -4.996 -12.887  1.00  0.00     0.197 C 
HETATM    5  C   UNL     1       1.719  -5.903 -11.977  1.00  0.00     0.263 C 
HETATM    6  O   UNL     1       1.885  -5.335 -10.690  1.00  0.00    -0.327 OA
HETATM    7  C   UNL     1       2.596  -4.088 -10.753  1.00  0.00     0.177 C 
BRANCH   3   8
HETATM    8  O   UNL     1       0.534  -2.717 -13.610  1.00  0.00    -0.380 OA
HETATM    9  H   UNL     1      -0.257  -3.269 -13.774  1.00  0.00     0.211 HD
ENDBRANCH   3   8
BRANCH   4  10
HETATM   10  O   UNL     1       0.816  -5.575 -14.202  1.00  0.00    -0.378 OA
HETATM   11  H   UNL     1       1.628  -5.273 -14.653  1.00  0.00     0.211 HD
ENDBRANCH   4  10
BRANCH   5  12
HETATM   12  O   UNL     1       1.033  -7.140 -11.828  1.00  0.00    -0.359 OA
HETATM   13  H   UNL     1       0.141  -6.982 -12.179  1.00  0.00     0.213 HD
ENDBRANCH   5  12
BRANCH   7  14
HETATM   14  C   UNL     1       2.827  -3.627  -9.309  1.00  0.00     0.170 C 
BRANCH  14  15
HETATM   15  O   UNL     1       4.131  -3.060  -9.190  1.00  0.00    -0.380 OA
HETATM   16  H   UNL     1       4.583  -3.578  -8.496  1.00  0.00     0.211 HD
ENDBRANCH  14  15
ENDBRANCH   7  14
ENDBRANCH   1   2
BRANCH   1  17
HETATM   17  C   UNL     1       3.797  -2.029 -12.476  1.00  0.00     0.266 C 
HETATM   18  O   UNL     1       4.954  -2.078 -11.649  1.00  0.00    -0.326 OA
HETATM   19  C   UNL     1       6.156  -2.321 -12.415  1.00  0.00     0.176 C 
HETATM   20  C   UNL     1       6.416  -1.110 -13.323  1.00  0.00     0.170 C 
HETATM   21  C   UNL     1       5.192  -0.908 -14.239  1.00  0.00     0.172 C 
HETATM   22  C   UNL     1       3.889  -0.827 -13.435  1.00  0.00     0.197 C 
BRANCH  19  23
HETATM   23  C   UNL     1       7.290  -2.569 -11.418  1.00  0.00     0.170 C 
BRANCH  23  24
HETATM   24  O   UNL     1       6.977  -1.929 -10.178  1.00  0.00    -0.380 OA
HETATM   25  H   UNL     1       6.115  -2.285  -9.877  1.00  0.00     0.211 HD
ENDBRANCH  23  24
ENDBRANCH  19  23
BRANCH  20  26
HETATM   26  O   UNL     1       6.668   0.052 -12.519  1.00  0.00    -0.380 OA
HETATM   27  H   UNL     1       7.608   0.069 -12.274  1.00  0.00     0.211 HD
ENDBRANCH  20  26
BRANCH  21  28
HETATM   28  O   UNL     1       5.336   0.264 -15.045  1.00  0.00    -0.380 OA
HETATM   29  H   UNL     1       4.529   0.795 -14.894  1.00  0.00     0.211 HD
ENDBRANCH  21  28
BRANCH  22  30
HETATM   30  O   UNL     1       2.782  -0.803 -14.348  1.00  0.00    -0.378 OA
HETATM   31  H   UNL     1       2.359   0.071 -14.239  1.00  0.00     0.211 HD
ENDBRANCH  22  30
ENDBRANCH   1  17
TORSDOF 12
ENDMDL
MODEL 6
REMARK VINA RESULT:    -4.800     18.409     21.420
REMARK INTER + INTRA:          -8.545
REMARK INTER:                  -7.104
REMARK INTRA:                  -1.442
REMARK UNBOUND:                -1.501
REMARK  12 active torsions:
REMARK  status: ('A' for Active; 'I' for Inactive)
REMARK    1  A    between atoms: O_1  and  C_12 
REMARK    2  A    between atoms: O_1  and  C_14 
REMARK    3  A    between atoms: O_4  and  C_13 
REMARK    4  A    between atoms: O_5  and  C_16 
REMARK    5  A    between atoms: O_6  and  C_17 
REMARK    6  A    between atoms: O_7  and  C_18 
REMARK    7  A    between atoms: O_8  and  C_19 
REMARK    8  A    between atoms: O_9  and  C_21 
REMARK    9  A    between atoms: O_10  and  C_22 
REMARK   10  A    between atoms: O_11  and  C_23 
REMARK   11  A    between atoms: C_15  and  C_22 
REMARK   12  A    between atoms: C_20  and  C_23 
ROOT
HETATM    1  O   UNL     1      -7.769 -19.844  -5.925  1.00  0.00    -0.326 OA
ENDROOT
BRANCH   1   2
HETATM    2  C   UNL     1      -8.782 -18.900  -6.326  1.00  0.00     0.177 C 
HETATM    3  C   UNL     1      -8.917 -18.877  -7.864  1.00  0.00     0.172 C 
HETATM    4  C   UNL     1     -10.178 -18.131  -8.315  1.00  0.00     0.197 C 
HETATM    5  C   UNL     1     -11.407 -18.610  -7.528  1.00  0.00     0.263 C 
HETATM    6  O   UNL     1     -11.200 -18.503  -6.130  1.00  0.00    -0.327 OA
HETATM    7  C   UNL     1     -10.115 -19.338  -5.694  1.00  0.00     0.177 C 
BRANCH   3   8
HETATM    8  O   UNL     1      -7.769 -18.232  -8.444  1.00  0.00    -0.380 OA
HETATM    9  H   UNL     1      -7.161 -18.061  -7.695  1.00  0.00     0.211 HD
ENDBRANCH   3   8
BRANCH   4  10
HETATM   10  O   UNL     1     -10.406 -18.344  -9.719  1.00  0.00    -0.378 OA
HETATM   11  H   UNL     1     -11.376 -18.395  -9.817  1.00  0.00     0.211 HD
ENDBRANCH   4  10
BRANCH   5  12
HETATM   12  O   UNL     1     -12.507 -17.778  -7.876  1.00  0.00    -0.359 OA
HETATM   13  H   UNL     1     -12.778 -18.069  -8.761  1.00  0.00     0.213 HD
ENDBRANCH   5  12
BRANCH   7  14
HETATM   14  C   UNL     1     -10.059 -19.242  -4.165  1.00  0.00     0.170 C 
BRANCH  14  15
HETATM   15  O   UNL     1      -9.686 -20.507  -3.619  1.00  0.00    -0.380 OA
HETATM   16  H   UNL     1      -9.420 -21.056  -4.382  1.00  0.00     0.211 HD
ENDBRANCH  14  15
ENDBRANCH   7  14
ENDBRANCH   1   2
BRANCH   1  17
HETATM   17  C   UNL     1      -6.577 -19.235  -5.412  1.00  0.00     0.266 C 
HETATM   18  O   UNL     1      -5.609 -19.135  -6.450  1.00  0.00    -0.326 OA
HETATM   19  C   UNL     1      -4.407 -18.465  -6.004  1.00  0.00     0.176 C 
HETATM   20  C   UNL     1      -3.714 -19.343  -4.952  1.00  0.00     0.170 C 
HETATM   21  C   UNL     1      -4.693 -19.581  -3.785  1.00  0.00     0.172 C 
HETATM   22  C   UNL     1      -6.039 -20.128  -4.278  1.00  0.00     0.197 C 
BRANCH  19  23
HETATM   23  C   UNL     1      -3.537 -18.221  -7.239  1.00  0.00     0.170 C 
BRANCH  23  24
HETATM   24  O   UNL     1      -2.159 -18.256  -6.860  1.00  0.00    -0.380 OA
HETATM   25  H   UNL     1      -1.788 -17.365  -7.028  1.00  0.00     0.211 HD
ENDBRANCH  23  24
ENDBRANCH  19  23
BRANCH  20  26
HETATM   26  O   UNL     1      -3.299 -20.579  -5.550  1.00  0.00    -0.380 OA
HETATM   27  H   UNL     1      -4.080 -21.137  -5.696  1.00  0.00     0.211 HD
ENDBRANCH  20  26
BRANCH  21  28
HETATM   28  O   UNL     1      -4.137 -20.470  -2.814  1.00  0.00    -0.380 OA
HETATM   29  H   UNL     1      -4.678 -20.361  -2.008  1.00  0.00     0.211 HD
ENDBRANCH  21  28
BRANCH  22  30
HETATM   30  O   UNL     1      -6.953 -20.173  -3.171  1.00  0.00    -0.378 OA
HETATM   31  H   UNL     1      -7.201 -19.246  -2.987  1.00  0.00     0.211 HD
ENDBRANCH  22  30
ENDBRANCH   1  17
TORSDOF 12
ENDMDL
MODEL 7
REMARK VINA RESULT:    -4.794     21.242     24.152
REMARK INTER + INTRA:          -8.536
REMARK INTER:                  -7.070
REMARK INTRA:                  -1.466
REMARK UNBOUND:                -1.501
REMARK  12 active torsions:
REMARK  status: ('A' for Active; 'I' for Inactive)
REMARK    1  A    between atoms: O_1  and  C_12 
REMARK    2  A    between atoms: O_1  and  C_14 
REMARK    3  A    between atoms: O_4  and  C_13 
REMARK    4  A    between atoms: O_5  and  C_16 
REMARK    5  A    between atoms: O_6  and  C_17 
REMARK    6  A    between atoms: O_7  and  C_18 
REMARK    7  A    between atoms: O_8  and  C_19 
REMARK    8  A    between atoms: O_9  and  C_21 
REMARK    9  A    between atoms: O_10  and  C_22 
REMARK   10  A    between atoms: O_11  and  C_23 
REMARK   11  A    between atoms: C_15  and  C_22 
REMARK   12  A    between atoms: C_20  and  C_23 
ROOT
HETATM    1  O   UNL     1       5.806  -4.874  14.953  1.00  0.00    -0.326 OA
ENDROOT
BRANCH   1   2
HETATM    2  C   UNL     1       6.579  -3.824  15.569  1.00  0.00     0.177 C 
HETATM    3  C   UNL     1       7.541  -3.191  14.541  1.00  0.00     0.172 C 
HETATM    4  C   UNL     1       8.149  -1.882  15.060  1.00  0.00     0.197 C 
HETATM    5  C   UNL     1       7.060  -0.963  15.632  1.00  0.00     0.263 C 
HETATM    6  O   UNL     1       6.297  -1.623  16.627  1.00  0.00    -0.327 OA
HETATM    7  C   UNL     1       5.598  -2.757  16.088  1.00  0.00     0.177 C 
BRANCH   3   8
HETATM    8  O   UNL     1       8.609  -4.109  14.246  1.00  0.00    -0.380 OA
HETATM    9  H   UNL     1       8.180  -4.879  13.819  1.00  0.00     0.211 HD
ENDBRANCH   3   8
BRANCH   4  10
HETATM   10  O   UNL     1       8.833  -1.196  13.996  1.00  0.00    -0.378 OA
HETATM   11  H   UNL     1       9.362  -0.504  14.436  1.00  0.00     0.211 HD
ENDBRANCH   4  10
BRANCH   5  12
HETATM   12  O   UNL     1       7.698   0.156  16.235  1.00  0.00    -0.359 OA
HETATM   13  H   UNL     1       7.947  -0.140  17.126  1.00  0.00     0.213 HD
ENDBRANCH   5  12
BRANCH   7  14
HETATM   14  C   UNL     1       4.715  -3.317  17.209  1.00  0.00     0.170 C 
BRANCH  14  15
HETATM   15  O   UNL     1       3.682  -4.125  16.647  1.00  0.00    -0.380 OA
HETATM   16  H   UNL     1       3.591  -3.831  15.720  1.00  0.00     0.211 HD
ENDBRANCH  14  15
ENDBRANCH   7  14
ENDBRANCH   1   2
BRANCH   1  17
HETATM   17  C   UNL     1       6.126  -6.187  15.431  1.00  0.00     0.266 C 
HETATM   18  O   UNL     1       7.488  -6.480  15.141  1.00  0.00    -0.326 OA
HETATM   19  C   UNL     1       7.885  -7.770  15.662  1.00  0.00     0.176 C 
HETATM   20  C   UNL     1       7.116  -8.865  14.908  1.00  0.00     0.170 C 
HETATM   21  C   UNL     1       5.605  -8.622  15.093  1.00  0.00     0.172 C 
HETATM   22  C   UNL     1       5.209  -7.192  14.707  1.00  0.00     0.197 C 
BRANCH  19  23
HETATM   23  C   UNL     1       9.402  -7.884  15.488  1.00  0.00     0.170 C 
BRANCH  23  24
HETATM   24  O   UNL     1       9.831  -6.967  14.478  1.00  0.00    -0.380 OA
HETATM   25  H   UNL     1       9.547  -6.072  14.758  1.00  0.00     0.211 HD
ENDBRANCH  23  24
ENDBRANCH  19  23
BRANCH  20  26
HETATM   26  O   UNL     1       7.485  -8.849  13.522  1.00  0.00    -0.380 OA
HETATM   27  H   UNL     1       7.732  -9.748  13.250  1.00  0.00     0.211 HD
ENDBRANCH  20  26
BRANCH  21  28
HETATM   28  O   UNL     1       4.833  -9.558  14.336  1.00  0.00    -0.380 OA
HETATM   29  H   UNL     1       5.408 -10.337  14.205  1.00  0.00     0.211 HD
ENDBRANCH  21  28
BRANCH  22  30
HETATM   30  O   UNL     1       3.831  -6.983  15.054  1.00  0.00    -0.378 OA
HETATM   31  H   UNL     1       3.313  -7.570  14.470  1.00  0.00     0.211 HD
ENDBRANCH  22  30
ENDBRANCH   1  17
TORSDOF 12
ENDMDL
MODEL 8
REMARK VINA RESULT:    -4.788     38.365     40.680
REMARK INTER + INTRA:          -8.527
REMARK INTER:                  -7.039
REMARK INTRA:                  -1.488
REMARK UNBOUND:                -1.501
REMARK  12 active torsions:
REMARK  status: ('A' for Active; 'I' for Inactive)
REMARK    1  A    between atoms: O_1  and  C_12 
REMARK    2  A    between atoms: O_1  and  C_14 
REMARK    3  A    between atoms: O_4  and  C_13 
REMARK    4  A    between atoms: O_5  and  C_16 
REMARK    5  A    between atoms: O_6  and  C_17 
REMARK    6  A    between atoms: O_7  and  C_18 
REMARK    7  A    between atoms: O_8  and  C_19 
REMARK    8  A    between atoms: O_9  and  C_21 
REMARK    9  A    between atoms: O_10  and  C_22 
REMARK   10  A    between atoms: O_11  and  C_23 
REMARK   11  A    between atoms: C_15  and  C_22 
REMARK   12  A    between atoms: C_20  and  C_23 
ROOT
HETATM    1  O   UNL     1      -0.707  17.140 -10.106  1.00  0.00    -0.326 OA
ENDROOT
BRANCH   1   2
HETATM    2  C   UNL     1       0.039  17.741 -11.185  1.00  0.00     0.177 C 
HETATM    3  C   UNL     1       1.514  17.940 -10.773  1.00  0.00     0.172 C 
HETATM    4  C   UNL     1       2.401  18.280 -11.977  1.00  0.00     0.197 C 
HETATM    5  C   UNL     1       2.140  17.310 -13.139  1.00  0.00     0.263 C 
HETATM    6  O   UNL     1       0.767  17.276 -13.486  1.00  0.00    -0.327 OA
HETATM    7  C   UNL     1      -0.039  16.797 -12.397  1.00  0.00     0.177 C 
BRANCH   3   8
HETATM    8  O   UNL     1       1.611  19.008  -9.813  1.00  0.00    -0.380 OA
HETATM    9  H   UNL     1       1.199  19.784 -10.246  1.00  0.00     0.211 HD
ENDBRANCH   3   8
BRANCH   4  10
HETATM   10  O   UNL     1       3.789  18.209 -11.607  1.00  0.00    -0.378 OA
HETATM   11  H   UNL     1       4.213  18.967 -12.054  1.00  0.00     0.211 HD
ENDBRANCH   4  10
BRANCH   5  12
HETATM   12  O   UNL     1       2.870  17.769 -14.270  1.00  0.00    -0.359 OA
HETATM   13  H   UNL     1       3.686  17.243 -14.279  1.00  0.00     0.213 HD
ENDBRANCH   5  12
BRANCH   7  14
HETATM   14  C   UNL     1      -1.477  16.683 -12.917  1.00  0.00     0.170 C 
BRANCH  14  15
HETATM   15  O   UNL     1      -2.142  15.608 -12.253  1.00  0.00    -0.380 OA
HETATM   16  H   UNL     1      -3.010  15.963 -11.980  1.00  0.00     0.211 HD
ENDBRANCH  14  15
ENDBRANCH   7  14
ENDBRANCH   1   2
BRANCH   1  17
HETATM   17  C   UNL     1      -0.025  16.056  -9.461  1.00  0.00     0.266 C 
HETATM   18  O   UNL     1      -0.687  14.833  -9.760  1.00  0.00    -0.326 OA
HETATM   19  C   UNL     1      -0.001  13.695  -9.189  1.00  0.00     0.176 C 
HETATM   20  C   UNL     1      -0.088  13.783  -7.658  1.00  0.00     0.170 C 
HETATM   21  C   UNL     1       0.548  15.112  -7.204  1.00  0.00     0.172 C 
HETATM   22  C   UNL     1      -0.058  16.312  -7.942  1.00  0.00     0.197 C 
BRANCH  19  23
HETATM   23  C   UNL     1      -0.666  12.435  -9.749  1.00  0.00     0.170 C 
BRANCH  23  24
HETATM   24  O   UNL     1      -0.689  11.425  -8.737  1.00  0.00    -0.380 OA
HETATM   25  H   UNL     1      -0.327  10.606  -9.135  1.00  0.00     0.211 HD
ENDBRANCH  23  24
ENDBRANCH  19  23
BRANCH  20  26
HETATM   26  O   UNL     1      -1.459  13.689  -7.245  1.00  0.00    -0.380 OA
HETATM   27  H   UNL     1      -1.935  14.480  -7.546  1.00  0.00     0.211 HD
ENDBRANCH  20  26
BRANCH  21  28
HETATM   28  O   UNL     1       0.414  15.296  -5.793  1.00  0.00    -0.380 OA
HETATM   29  H   UNL     1      -0.353  14.754  -5.523  1.00  0.00     0.211 HD
ENDBRANCH  21  28
BRANCH  22  30
HETATM   30  O   UNL     1       0.684  17.491  -7.596  1.00  0.00    -0.378 OA
HETATM   31  H   UNL     1       1.315  17.639  -8.327  1.00  0.00     0.211 HD
ENDBRANCH  22  30
ENDBRANCH   1  17
TORSDOF 12
ENDMDL
MODEL 9
REMARK VINA RESULT:    -4.775     30.474     33.364
REMARK INTER + INTRA:          -8.509
REMARK INTER:                  -6.930
REMARK INTRA:                  -1.579
REMARK UNBOUND:                -1.501
REMARK  12 active torsions:
REMARK  status: ('A' for Active; 'I' for Inactive)
REMARK    1  A    between atoms: O_1  and  C_12 
REMARK    2  A    between atoms: O_1  and  C_14 
REMARK    3  A    between atoms: O_4  and  C_13 
REMARK    4  A    between atoms: O_5  and  C_16 
REMARK    5  A    between atoms: O_6  and  C_17 
REMARK    6  A    between atoms: O_7  and  C_18 
REMARK    7  A    between atoms: O_8  and  C_19 
REMARK    8  A    between atoms: O_9  and  C_21 
REMARK    9  A    between atoms: O_10  and  C_22 
REMARK   10  A    between atoms: O_11  and  C_23 
REMARK   11  A    between atoms: C_15  and  C_22 
REMARK   12  A    between atoms: C_20  and  C_23 
ROOT
HETATM    1  O   UNL     1       3.768  -2.040 -10.641  1.00  0.00    -0.326 OA
ENDROOT
BRANCH   1   2
HETATM    2  C   UNL     1       2.429  -2.271 -11.124  1.00  0.00     0.177 C 
HETATM    3  C   UNL     1       2.131  -1.362 -12.336  1.00  0.00     0.172 C 
HETATM    4  C   UNL     1       0.853  -1.788 -13.068  1.00  0.00     0.197 C 
HETATM    5  C   UNL     1       0.854  -3.301 -13.332  1.00  0.00     0.263 C 
HETATM    6  O   UNL     1       1.049  -4.036 -12.137  1.00  0.00    -0.327 OA
HETATM    7  C   UNL     1       2.327  -3.748 -11.546  1.00  0.00     0.177 C 
BRANCH   3   8
HETATM    8  O   UNL     1       1.976   0.000 -11.895  1.00  0.00    -0.380 OA
HETATM    9  H   UNL     1       2.732   0.166 -11.296  1.00  0.00     0.211 HD
ENDBRANCH   3   8
BRANCH   4  10
HETATM   10  O   UNL     1       0.742  -1.091 -14.321  1.00  0.00    -0.378 OA
HETATM   11  H   UNL     1       1.107  -1.702 -14.988  1.00  0.00     0.211 HD
ENDBRANCH   4  10
BRANCH   5  12
HETATM   12  O   UNL     1      -0.415  -3.657 -13.867  1.00  0.00    -0.359 OA
HETATM   13  H   UNL     1      -0.573  -4.567 -13.567  1.00  0.00     0.213 HD
ENDBRANCH   5  12
BRANCH   7  14
HETATM   14  C   UNL     1       2.484  -4.679 -10.338  1.00  0.00     0.170 C 
BRANCH  14  15
HETATM   15  O   UNL     1       3.841  -5.112 -10.241  1.00  0.00    -0.380 OA
HETATM   16  H   UNL     1       3.835  -5.865  -9.619  1.00  0.00     0.211 HD
ENDBRANCH  14  15
ENDBRANCH   7  14
ENDBRANCH   1   2
BRANCH   1  17
HETATM   17  C   UNL     1       4.763  -2.018 -11.673  1.00  0.00     0.266 C 
HETATM   18  O   UNL     1       5.543  -3.206 -11.607  1.00  0.00    -0.326 OA
HETATM   19  C   UNL     1       6.522  -3.269 -12.670  1.00  0.00     0.176 C 
HETATM   20  C   UNL     1       7.554  -2.152 -12.457  1.00  0.00     0.170 C 
HETATM   21  C   UNL     1       6.819  -0.797 -12.445  1.00  0.00     0.172 C 
HETATM   22  C   UNL     1       5.662  -0.788 -11.438  1.00  0.00     0.197 C 
BRANCH  19  23
HETATM   23  C   UNL     1       7.144  -4.666 -12.634  1.00  0.00     0.170 C 
BRANCH  23  24
HETATM   24  O   UNL     1       6.362  -5.510 -11.786  1.00  0.00    -0.380 OA
HETATM   25  H   UNL     1       5.421  -5.283 -11.937  1.00  0.00     0.211 HD
ENDBRANCH  23  24
ENDBRANCH  19  23
BRANCH  20  26
HETATM   26  O   UNL     1       8.263  -2.376 -11.230  1.00  0.00    -0.380 OA
HETATM   27  H   UNL     1       8.892  -3.105 -11.357  1.00  0.00     0.211 HD
ENDBRANCH  20  26
BRANCH  21  28
HETATM   28  O   UNL     1       7.717   0.278 -12.157  1.00  0.00    -0.380 OA
HETATM   29  H   UNL     1       7.784   0.319 -11.183  1.00  0.00     0.211 HD
ENDBRANCH  21  28
BRANCH  22  30
HETATM   30  O   UNL     1       4.923   0.433 -11.592  1.00  0.00    -0.378 OA
HETATM   31  H   UNL     1       5.094   0.740 -12.503  1.00  0.00     0.211 HD
ENDBRANCH  22  30
ENDBRANCH   1  17
TORSDOF 12
ENDMDL
MODEL 10
REMARK VINA RESULT:    -4.721     20.170     22.938
REMARK INTER + INTRA:          -8.429
REMARK INTER:                  -7.082
REMARK INTRA:                  -1.347
REMARK UNBOUND:                -1.501
REMARK  12 active torsions:
REMARK  status: ('A' for Active; 'I' for Inactive)
REMARK    1  A    between atoms: O_1  and  C_12 
REMARK    2  A    between atoms: O_1  and  C_14 
REMARK    3  A    between atoms: O_4  and  C_13 
REMARK    4  A    between atoms: O_5  and  C_16 
REMARK    5  A    between atoms: O_6  and  C_17 
REMARK    6  A    between atoms: O_7  and  C_18 
REMARK    7  A    between atoms: O_8  and  C_19 
REMARK    8  A    between atoms: O_9  and  C_21 
REMARK    9  A    between atoms: O_10  and  C_22 
REMARK   10  A    between atoms: O_11  and  C_23 
REMARK   11  A    between atoms: C_15  and  C_22 
REMARK   12  A    between atoms: C_20  and  C_23 
ROOT
HETATM    1  O   UNL     1       6.168  -8.129  15.812  1.00  0.00    -0.326 OA
ENDROOT
BRANCH   1   2
HETATM    2  C   UNL     1       6.535  -9.273  15.013  1.00  0.00     0.177 C 
HETATM    3  C   UNL     1       8.053  -9.535  15.116  1.00  0.00     0.172 C 
HETATM    4  C   UNL     1       8.435 -10.906  14.544  1.00  0.00     0.197 C 
HETATM    5  C   UNL     1       7.513 -12.003  15.096  1.00  0.00     0.263 C 
HETATM    6  O   UNL     1       6.148 -11.696  14.868  1.00  0.00    -0.327 OA
HETATM    7  C   UNL     1       5.761 -10.491  15.547  1.00  0.00     0.177 C 
BRANCH   3   8
HETATM    8  O   UNL     1       8.772  -8.519  14.393  1.00  0.00    -0.380 OA
HETATM    9  H   UNL     1       8.575  -8.684  13.448  1.00  0.00     0.211 HD
ENDBRANCH   3   8
BRANCH   4  10
HETATM   10  O   UNL     1       9.797 -11.222  14.880  1.00  0.00    -0.378 OA
HETATM   11  H   UNL     1       9.888 -10.995  15.825  1.00  0.00     0.211 HD
ENDBRANCH   4  10
BRANCH   5  12
HETATM   12  O   UNL     1       7.812 -13.216  14.415  1.00  0.00    -0.359 OA
HETATM   13  H   UNL     1       7.637 -13.921  15.059  1.00  0.00     0.213 HD
ENDBRANCH   5  12
BRANCH   7  14
HETATM   14  C   UNL     1       4.251 -10.321  15.337  1.00  0.00     0.170 C 
BRANCH  14  15
HETATM   15  O   UNL     1       3.712  -9.503  16.374  1.00  0.00    -0.380 OA
HETATM   16  H   UNL     1       4.141  -8.631  16.274  1.00  0.00     0.211 HD
ENDBRANCH  14  15
ENDBRANCH   7  14
ENDBRANCH   1   2
BRANCH   1  17
HETATM   17  C   UNL     1       6.116  -6.900  15.076  1.00  0.00     0.266 C 
HETATM   18  O   UNL     1       7.176  -6.048  15.496  1.00  0.00    -0.326 OA
HETATM   19  C   UNL     1       7.212  -4.817  14.738  1.00  0.00     0.176 C 
HETATM   20  C   UNL     1       5.951  -4.002  15.059  1.00  0.00     0.170 C 
HETATM   21  C   UNL     1       4.713  -4.849  14.703  1.00  0.00     0.172 C 
HETATM   22  C   UNL     1       4.759  -6.230  15.368  1.00  0.00     0.197 C 
BRANCH  19  23
HETATM   23  C   UNL     1       8.502  -4.087  15.118  1.00  0.00     0.170 C 
BRANCH  23  24
HETATM   24  O   UNL     1       8.292  -2.676  15.019  1.00  0.00    -0.380 OA
HETATM   25  H   UNL     1       9.004  -2.315  14.450  1.00  0.00     0.211 HD
ENDBRANCH  23  24
ENDBRANCH  19  23
BRANCH  20  26
HETATM   26  O   UNL     1       5.953  -3.633  16.445  1.00  0.00    -0.380 OA
HETATM   27  H   UNL     1       5.603  -4.372  16.970  1.00  0.00     0.211 HD
ENDBRANCH  20  26
BRANCH  21  28
HETATM   28  O   UNL     1       3.503  -4.179  15.066  1.00  0.00    -0.380 OA
HETATM   29  H   UNL     1       3.144  -3.806  14.238  1.00  0.00     0.211 HD
ENDBRANCH  21  28
BRANCH  22  30
HETATM   30  O   UNL     1       3.670  -7.022  14.870  1.00  0.00    -0.378 OA
HETATM   31  H   UNL     1       3.934  -7.313  13.975  1.00  0.00     0.211 HD
ENDBRANCH  22  30
ENDBRANCH   1  17
TORSDOF 12
ENDMDL
MODEL 11
REMARK VINA RESULT:    -4.643     17.356     20.631
REMARK INTER + INTRA:          -8.315
REMARK INTER:                  -6.874
REMARK INTRA:                  -1.441
REMARK UNBOUND:                -1.501
REMARK  12 active torsions:
REMARK  status: ('A' for Active; 'I' for Inactive)
REMARK    1  A    between atoms: O_1  and  C_12 
REMARK    2  A    between atoms: O_1  and  C_14 
REMARK    3  A    between atoms: O_4  and  C_13 
REMARK    4  A    between atoms: O_5  and  C_16 
REMARK    5  A    between atoms: O_6  and  C_17 
REMARK    6  A    between atoms: O_7  and  C_18 
REMARK    7  A    between atoms: O_8  and  C_19 
REMARK    8  A    between atoms: O_9  and  C_21 
REMARK    9  A    between atoms: O_10  and  C_22 
REMARK   10  A    between atoms: O_11  and  C_23 
REMARK   11  A    between atoms: C_15  and  C_22 
REMARK   12  A    between atoms: C_20  and  C_23 
ROOT
HETATM    1  O   UNL     1      -7.081 -19.704  -6.331  1.00  0.00    -0.326 OA
ENDROOT
BRANCH   1   2
HETATM    2  C   UNL     1      -5.900 -19.516  -5.525  1.00  0.00     0.177 C 
HETATM    3  C   UNL     1      -5.900 -20.499  -4.334  1.00  0.00     0.172 C 
HETATM    4  C   UNL     1      -4.535 -20.551  -3.638  1.00  0.00     0.197 C 
HETATM    5  C   UNL     1      -3.404 -20.719  -4.663  1.00  0.00     0.263 C 
HETATM    6  O   UNL     1      -3.453 -19.711  -5.658  1.00  0.00    -0.327 OA
HETATM    7  C   UNL     1      -4.672 -19.778  -6.415  1.00  0.00     0.177 C 
BRANCH   3   8
HETATM    8  O   UNL     1      -6.893 -20.098  -3.372  1.00  0.00    -0.380 OA
HETATM    9  H   UNL     1      -6.853 -20.771  -2.663  1.00  0.00     0.211 HD
ENDBRANCH   3   8
BRANCH   4  10
HETATM   10  O   UNL     1      -4.494 -21.647  -2.707  1.00  0.00    -0.378 OA
HETATM   11  H   UNL     1      -4.924 -22.392  -3.169  1.00  0.00     0.211 HD
ENDBRANCH   4  10
BRANCH   5  12
HETATM   12  O   UNL     1      -2.164 -20.603  -3.978  1.00  0.00    -0.359 OA
HETATM   13  H   UNL     1      -2.279 -19.859  -3.364  1.00  0.00     0.213 HD
ENDBRANCH   5  12
BRANCH   7  14
HETATM   14  C   UNL     1      -4.567 -18.733  -7.532  1.00  0.00     0.170 C 
BRANCH  14  15
HETATM   15  O   UNL     1      -5.473 -19.064  -8.584  1.00  0.00    -0.380 OA
HETATM   16  H   UNL     1      -5.236 -18.480  -9.331  1.00  0.00     0.211 HD
ENDBRANCH  14  15
ENDBRANCH   7  14
ENDBRANCH   1   2
BRANCH   1  17
HETATM   17  C   UNL     1      -8.107 -18.731  -6.093  1.00  0.00     0.266 C 
HETATM   18  O   UNL     1      -8.874 -19.117  -4.958  1.00  0.00    -0.326 OA
HETATM   19  C   UNL     1      -9.884 -18.136  -4.630  1.00  0.00     0.176 C 
HETATM   20  C   UNL     1     -10.920 -18.096  -5.764  1.00  0.00     0.170 C 
HETATM   21  C   UNL     1     -10.197 -17.745  -7.080  1.00  0.00     0.172 C 
HETATM   22  C   UNL     1      -9.009 -18.680  -7.341  1.00  0.00     0.197 C 
BRANCH  19  23
HETATM   23  C   UNL     1     -10.493 -18.540  -3.286  1.00  0.00     0.170 C 
BRANCH  23  24
HETATM   24  O   UNL     1      -9.875 -19.747  -2.832  1.00  0.00    -0.380 OA
HETATM   25  H   UNL     1      -9.649 -20.275  -3.626  1.00  0.00     0.211 HD
ENDBRANCH  23  24
ENDBRANCH  19  23
BRANCH  20  26
HETATM   26  O   UNL     1     -11.588 -19.362  -5.853  1.00  0.00    -0.380 OA
HETATM   27  H   UNL     1     -10.990 -20.007  -6.264  1.00  0.00     0.211 HD
ENDBRANCH  20  26
BRANCH  21  28
HETATM   28  O   UNL     1     -11.095 -17.784  -8.191  1.00  0.00    -0.380 OA
HETATM   29  H   UNL     1     -10.697 -18.398  -8.838  1.00  0.00     0.211 HD
ENDBRANCH  21  28
BRANCH  22  30
HETATM   30  O   UNL     1      -8.288 -18.202  -8.486  1.00  0.00    -0.378 OA
HETATM   31  H   UNL     1      -8.042 -17.278  -8.285  1.00  0.00     0.211 HD
ENDBRANCH  22  30
ENDBRANCH   1  17
TORSDOF 12
ENDMDL
MODEL 12
REMARK VINA RESULT:    -4.591     20.461     23.621
REMARK INTER + INTRA:          -8.239
REMARK INTER:                  -6.864
REMARK INTRA:                  -1.375
REMARK UNBOUND:                -1.501
REMARK  12 active torsions:
REMARK  status: ('A' for Active; 'I' for Inactive)
REMARK    1  A    between atoms: O_1  and  C_12 
REMARK    2  A    between atoms: O_1  and  C_14 
REMARK    3  A    between atoms: O_4  and  C_13 
REMARK    4  A    between atoms: O_5  and  C_16 
REMARK    5  A    between atoms: O_6  and  C_17 
REMARK    6  A    between atoms: O_7  and  C_18 
REMARK    7  A    between atoms: O_8  and  C_19 
REMARK    8  A    between atoms: O_9  and  C_21 
REMARK    9  A    between atoms: O_10  and  C_22 
REMARK   10  A    between atoms: O_11  and  C_23 
REMARK   11  A    between atoms: C_15  and  C_22 
REMARK   12  A    between atoms: C_20  and  C_23 
ROOT
HETATM    1  O   UNL     1       6.192  -6.093  15.932  1.00  0.00    -0.326 OA
ENDROOT
BRANCH   1   2
HETATM    2  C   UNL     1       6.253  -7.277  15.111  1.00  0.00     0.177 C 
HETATM    3  C   UNL     1       7.706  -7.791  15.014  1.00  0.00     0.172 C 
HETATM    4  C   UNL     1       7.774  -9.203  14.420  1.00  0.00     0.197 C 
HETATM    5  C   UNL     1       6.764 -10.133  15.108  1.00  0.00     0.263 C 
HETATM    6  O   UNL     1       5.452  -9.601  15.059  1.00  0.00    -0.327 OA
HETATM    7  C   UNL     1       5.365  -8.352  15.763  1.00  0.00     0.177 C 
BRANCH   3   8
HETATM    8  O   UNL     1       8.481  -6.905  14.185  1.00  0.00    -0.380 OA
HETATM    9  H   UNL     1       7.880  -6.164  13.965  1.00  0.00     0.211 HD
ENDBRANCH   3   8
BRANCH   4  10
HETATM   10  O   UNL     1       9.097  -9.744  14.577  1.00  0.00    -0.378 OA
HETATM   11  H   UNL     1       9.457  -9.808  13.672  1.00  0.00     0.211 HD
ENDBRANCH   4  10
BRANCH   5  12
HETATM   12  O   UNL     1       6.763 -11.375  14.413  1.00  0.00    -0.359 OA
HETATM   13  H   UNL     1       7.634 -11.767  14.589  1.00  0.00     0.213 HD
ENDBRANCH   5  12
BRANCH   7  14
HETATM   14  C   UNL     1       3.891  -7.931  15.753  1.00  0.00     0.170 C 
BRANCH  14  15
HETATM   15  O   UNL     1       3.653  -7.046  14.659  1.00  0.00    -0.380 OA
HETATM   16  H   UNL     1       2.682  -6.968  14.587  1.00  0.00     0.211 HD
ENDBRANCH  14  15
ENDBRANCH   7  14
ENDBRANCH   1   2
BRANCH   1  17
HETATM   17  C   UNL     1       6.260  -4.868  15.190  1.00  0.00     0.266 C 
HETATM   18  O   UNL     1       7.569  -4.320  15.294  1.00  0.00    -0.326 OA
HETATM   19  C   UNL     1       7.714  -3.115  14.508  1.00  0.00     0.176 C 
HETATM   20  C   UNL     1       6.820  -2.021  15.111  1.00  0.00     0.170 C 
HETATM   21  C   UNL     1       5.362  -2.523  15.114  1.00  0.00     0.172 C 
HETATM   22  C   UNL     1       5.234  -3.891  15.795  1.00  0.00     0.197 C 
BRANCH  19  23
HETATM   23  C   UNL     1       9.197  -2.740  14.518  1.00  0.00     0.170 C 
BRANCH  23  24
HETATM   24  O   UNL     1       9.330  -1.332  14.304  1.00  0.00    -0.380 OA
HETATM   25  H   UNL     1      10.276  -1.108  14.421  1.00  0.00     0.211 HD
ENDBRANCH  23  24
ENDBRANCH  19  23
BRANCH  20  26
HETATM   26  O   UNL     1       7.269  -1.706  16.436  1.00  0.00    -0.380 OA
HETATM   27  H   UNL     1       7.929  -0.995  16.386  1.00  0.00     0.211 HD
ENDBRANCH  20  26
BRANCH  21  28
HETATM   28  O   UNL     1       4.492  -1.583  15.750  1.00  0.00    -0.380 OA
HETATM   29  H   UNL     1       3.799  -1.371  15.095  1.00  0.00     0.211 HD
ENDBRANCH  21  28
BRANCH  22  30
HETATM   30  O   UNL     1       3.892  -4.371  15.621  1.00  0.00    -0.378 OA
HETATM   31  H   UNL     1       3.761  -5.062  16.299  1.00  0.00     0.211 HD
ENDBRANCH  22  30
ENDBRANCH   1  17
TORSDOF 12
ENDMDL
MODEL 13
REMARK VINA RESULT:    -4.558     18.763     21.627
REMARK INTER + INTRA:          -8.190
REMARK INTER:                  -6.755
REMARK INTRA:                  -1.435
REMARK UNBOUND:                -1.501
REMARK  12 active torsions:
REMARK  status: ('A' for Active; 'I' for Inactive)
REMARK    1  A    between atoms: O_1  and  C_12 
REMARK    2  A    between atoms: O_1  and  C_14 
REMARK    3  A    between atoms: O_4  and  C_13 
REMARK    4  A    between atoms: O_5  and  C_16 
REMARK    5  A    between atoms: O_6  and  C_17 
REMARK    6  A    between atoms: O_7  and  C_18 
REMARK    7  A    between atoms: O_8  and  C_19 
REMARK    8  A    between atoms: O_9  and  C_21 
REMARK    9  A    between atoms: O_10  and  C_22 
REMARK   10  A    between atoms: O_11  and  C_23 
REMARK   11  A    between atoms: C_15  and  C_22 
REMARK   12  A    between atoms: C_20  and  C_23 
ROOT
HETATM    1  O   UNL     1      -5.960 -18.639  -5.736  1.00  0.00    -0.326 OA
ENDROOT
BRANCH   1   2
HETATM    2  C   UNL     1      -4.909 -19.100  -6.609  1.00  0.00     0.177 C 
HETATM    3  C   UNL     1      -4.807 -18.192  -7.853  1.00  0.00     0.172 C 
HETATM    4  C   UNL     1      -3.519 -18.450  -8.644  1.00  0.00     0.197 C 
HETATM    5  C   UNL     1      -2.300 -18.469  -7.711  1.00  0.00     0.263 C 
HETATM    6  O   UNL     1      -2.469 -19.401  -6.657  1.00  0.00    -0.327 OA
HETATM    7  C   UNL     1      -3.587 -19.053  -5.823  1.00  0.00     0.177 C 
BRANCH   3   8
HETATM    8  O   UNL     1      -5.933 -18.425  -8.719  1.00  0.00    -0.380 OA
HETATM    9  H   UNL     1      -5.643 -19.123  -9.340  1.00  0.00     0.211 HD
ENDBRANCH   3   8
BRANCH   4  10
HETATM   10  O   UNL     1      -3.334 -17.428  -9.639  1.00  0.00    -0.378 OA
HETATM   11  H   UNL     1      -2.958 -16.666  -9.159  1.00  0.00     0.211 HD
ENDBRANCH   4  10
BRANCH   5  12
HETATM   12  O   UNL     1      -1.166 -18.866  -8.472  1.00  0.00    -0.359 OA
HETATM   13  H   UNL     1      -0.405 -18.452  -8.034  1.00  0.00     0.213 HD
ENDBRANCH   5  12
BRANCH   7  14
HETATM   14  C   UNL     1      -3.603 -20.046  -4.655  1.00  0.00     0.170 C 
BRANCH  14  15
HETATM   15  O   UNL     1      -4.177 -19.424  -3.505  1.00  0.00    -0.380 OA
HETATM   16  H   UNL     1      -4.370 -18.504  -3.771  1.00  0.00     0.211 HD
ENDBRANCH  14  15
ENDBRANCH   7  14
ENDBRANCH   1   2
BRANCH   1  17
HETATM   17  C   UNL     1      -7.193 -19.356  -5.884  1.00  0.00     0.266 C 
HETATM   18  O   UNL     1      -8.101 -18.585  -6.662  1.00  0.00    -0.326 OA
HETATM   19  C   UNL     1      -9.341 -19.289  -6.901  1.00  0.00     0.176 C 
HETATM   20  C   UNL     1     -10.076 -19.463  -5.563  1.00  0.00     0.170 C 
HETATM   21  C   UNL     1      -9.161 -20.241  -4.596  1.00  0.00     0.172 C 
HETATM   22  C   UNL     1      -7.777 -19.590  -4.477  1.00  0.00     0.197 C 
BRANCH  19  23
HETATM   23  C   UNL     1     -10.143 -18.470  -7.915  1.00  0.00     0.170 C 
BRANCH  23  24
HETATM   24  O   UNL     1     -11.540 -18.647  -7.666  1.00  0.00    -0.380 OA
HETATM   25  H   UNL     1     -12.007 -18.509  -8.516  1.00  0.00     0.211 HD
ENDBRANCH  23  24
ENDBRANCH  19  23
BRANCH  20  26
HETATM   26  O   UNL     1     -10.428 -18.177  -5.033  1.00  0.00    -0.380 OA
HETATM   27  H   UNL     1      -9.760 -17.528  -5.310  1.00  0.00     0.211 HD
ENDBRANCH  20  26
BRANCH  21  28
HETATM   28  O   UNL     1      -9.754 -20.354  -3.300  1.00  0.00    -0.380 OA
HETATM   29  H   UNL     1      -9.030 -20.608  -2.694  1.00  0.00     0.211 HD
ENDBRANCH  21  28
BRANCH  22  30
HETATM   30  O   UNL     1      -6.929 -20.445  -3.697  1.00  0.00    -0.378 OA
HETATM   31  H   UNL     1      -7.139 -20.256  -2.762  1.00  0.00     0.211 HD
ENDBRANCH  22  30
ENDBRANCH   1  17
TORSDOF 12
ENDMDL
MODEL 14
REMARK VINA RESULT:    -4.524     36.096     37.971
REMARK INTER + INTRA:          -8.140
REMARK INTER:                  -6.598
REMARK INTRA:                  -1.542
REMARK UNBOUND:                -1.501
REMARK  12 active torsions:
REMARK  status: ('A' for Active; 'I' for Inactive)
REMARK    1  A    between atoms: O_1  and  C_12 
REMARK    2  A    between atoms: O_1  and  C_14 
REMARK    3  A    between atoms: O_4  and  C_13 
REMARK    4  A    between atoms: O_5  and  C_16 
REMARK    5  A    between atoms: O_6  and  C_17 
REMARK    6  A    between atoms: O_7  and  C_18 
REMARK    7  A    between atoms: O_8  and  C_19 
REMARK    8  A    between atoms: O_9  and  C_21 
REMARK    9  A    between atoms: O_10  and  C_22 
REMARK   10  A    between atoms: O_11  and  C_23 
REMARK   11  A    between atoms: C_15  and  C_22 
REMARK   12  A    between atoms: C_20  and  C_23 
ROOT
HETATM    1  O   UNL     1      -1.255  15.443  -6.129  1.00  0.00    -0.326 OA
ENDROOT
BRANCH   1   2
HETATM    2  C   UNL     1      -0.244  15.825  -5.173  1.00  0.00     0.177 C 
HETATM    3  C   UNL     1       0.847  14.737  -5.081  1.00  0.00     0.172 C 
HETATM    4  C   UNL     1       2.084  15.233  -4.323  1.00  0.00     0.197 C 
HETATM    5  C   UNL     1       2.531  16.605  -4.846  1.00  0.00     0.263 C 
HETATM    6  O   UNL     1       1.472  17.546  -4.803  1.00  0.00    -0.327 OA
HETATM    7  C   UNL     1       0.381  17.148  -5.649  1.00  0.00     0.177 C 
BRANCH   3   8
HETATM    8  O   UNL     1       0.324  13.581  -4.401  1.00  0.00    -0.380 OA
HETATM    9  H   UNL     1       0.087  12.948  -5.110  1.00  0.00     0.211 HD
ENDBRANCH   3   8
BRANCH   4  10
HETATM   10  O   UNL     1       3.166  14.297  -4.472  1.00  0.00    -0.378 OA
HETATM   11  H   UNL     1       3.590  14.252  -3.594  1.00  0.00     0.211 HD
ENDBRANCH   4  10
BRANCH   5  12
HETATM   12  O   UNL     1       3.577  17.080  -4.006  1.00  0.00    -0.359 OA
HETATM   13  H   UNL     1       4.235  17.463  -4.609  1.00  0.00     0.213 HD
ENDBRANCH   5  12
BRANCH   7  14
HETATM   14  C   UNL     1      -0.646  18.286  -5.624  1.00  0.00     0.170 C 
BRANCH  14  15
HETATM   15  O   UNL     1      -1.437  18.243  -6.811  1.00  0.00    -0.380 OA
HETATM   16  H   UNL     1      -1.726  19.163  -6.970  1.00  0.00     0.211 HD
ENDBRANCH  14  15
ENDBRANCH   7  14
ENDBRANCH   1   2
BRANCH   1  17
HETATM   17  C   UNL     1      -0.733  14.815  -7.307  1.00  0.00     0.266 C 
HETATM   18  O   UNL     1      -0.835  15.710  -8.409  1.00  0.00    -0.326 OA
HETATM   19  C   UNL     1      -0.261  15.152  -9.613  1.00  0.00     0.176 C 
HETATM   20  C   UNL     1      -1.107  13.947 -10.051  1.00  0.00     0.170 C 
HETATM   21  C   UNL     1      -1.128  12.916  -8.905  1.00  0.00     0.172 C 
HETATM   22  C   UNL     1      -1.570  13.551  -7.580  1.00  0.00     0.197 C 
BRANCH  19  23
HETATM   23  C   UNL     1      -0.228  16.266 -10.661  1.00  0.00     0.170 C 
BRANCH  23  24
HETATM   24  O   UNL     1      -1.227  17.240 -10.346  1.00  0.00    -0.380 OA
HETATM   25  H   UNL     1      -1.790  17.347 -11.141  1.00  0.00     0.211 HD
ENDBRANCH  23  24
ENDBRANCH  19  23
BRANCH  20  26
HETATM   26  O   UNL     1      -2.430  14.383 -10.390  1.00  0.00    -0.380 OA
HETATM   27  H   UNL     1      -2.451  14.633 -11.329  1.00  0.00     0.211 HD
ENDBRANCH  20  26
BRANCH  21  28
HETATM   28  O   UNL     1      -1.978  11.810  -9.218  1.00  0.00    -0.380 OA
HETATM   29  H   UNL     1      -1.424  11.011  -9.125  1.00  0.00     0.211 HD
ENDBRANCH  21  28
BRANCH  22  30
HETATM   30  O   UNL     1      -1.412  12.585  -6.529  1.00  0.00    -0.378 OA
HETATM   31  H   UNL     1      -2.138  11.941  -6.642  1.00  0.00     0.211 HD
ENDBRANCH  22  30
ENDBRANCH   1  17
TORSDOF 12
ENDMDL
MODEL 15
REMARK VINA RESULT:    -4.500     20.724     23.168
REMARK INTER + INTRA:          -8.106
REMARK INTER:                  -6.728
REMARK INTRA:                  -1.377
REMARK UNBOUND:                -1.501
REMARK  12 active torsions:
REMARK  status: ('A' for Active; 'I' for Inactive)
REMARK    1  A    between atoms: O_1  and  C_12 
REMARK    2  A    between atoms: O_1  and  C_14 
REMARK    3  A    between atoms: O_4  and  C_13 
REMARK    4  A    between atoms: O_5  and  C_16 
REMARK    5  A    between atoms: O_6  and  C_17 
REMARK    6  A    between atoms: O_7  and  C_18 
REMARK    7  A    between atoms: O_8  and  C_19 
REMARK    8  A    between atoms: O_9  and  C_21 
REMARK    9  A    between atoms: O_10  and  C_22 
REMARK   10  A    between atoms: O_11  and  C_23 
REMARK   11  A    between atoms: C_15  and  C_22 
REMARK   12  A    between atoms: C_20  and  C_23 
ROOT
HETATM    1  O   UNL     1       7.560  -8.282  15.209  1.00  0.00    -0.326 OA
ENDROOT
BRANCH   1   2
HETATM    2  C   UNL     1       7.054  -9.598  15.513  1.00  0.00     0.177 C 
HETATM    3  C   UNL     1       6.216 -10.138  14.334  1.00  0.00     0.172 C 
HETATM    4  C   UNL     1       5.925 -11.637  14.481  1.00  0.00     0.197 C 
HETATM    5  C   UNL     1       7.206 -12.412  14.821  1.00  0.00     0.263 C 
HETATM    6  O   UNL     1       7.843 -11.882  15.971  1.00  0.00    -0.327 OA
HETATM    7  C   UNL     1       8.259 -10.523  15.761  1.00  0.00     0.177 C 
BRANCH   3   8
HETATM    8  O   UNL     1       4.965  -9.431  14.263  1.00  0.00    -0.380 OA
HETATM    9  H   UNL     1       4.891  -8.948  15.111  1.00  0.00     0.211 HD
ENDBRANCH   3   8
BRANCH   4  10
HETATM   10  O   UNL     1       5.369 -12.156  13.261  1.00  0.00    -0.378 OA
HETATM   11  H   UNL     1       5.659 -13.088  13.223  1.00  0.00     0.211 HD
ENDBRANCH   4  10
BRANCH   5  12
HETATM   12  O   UNL     1       6.847 -13.760  15.098  1.00  0.00    -0.359 OA
HETATM   13  H   UNL     1       7.611 -14.291  14.820  1.00  0.00     0.213 HD
ENDBRANCH   5  12
BRANCH   7  14
HETATM   14  C   UNL     1       9.039 -10.093  17.009  1.00  0.00     0.170 C 
BRANCH  14  15
HETATM   15  O   UNL     1       9.892  -8.995  16.686  1.00  0.00    -0.380 OA
HETATM   16  H   UNL     1      10.601  -9.004  17.359  1.00  0.00     0.211 HD
ENDBRANCH  14  15
ENDBRANCH   7  14
ENDBRANCH   1   2
BRANCH   1  17
HETATM   17  C   UNL     1       6.744  -7.216  15.713  1.00  0.00     0.266 C 
HETATM   18  O   UNL     1       5.769  -6.862  14.739  1.00  0.00    -0.326 OA
HETATM   19  C   UNL     1       4.873  -5.834  15.221  1.00  0.00     0.176 C 
HETATM   20  C   UNL     1       5.671  -4.536  15.417  1.00  0.00     0.170 C 
HETATM   21  C   UNL     1       6.812  -4.805  16.418  1.00  0.00     0.172 C 
HETATM   22  C   UNL     1       7.661  -6.012  15.998  1.00  0.00     0.197 C 
BRANCH  19  23
HETATM   23  C   UNL     1       3.750  -5.689  14.191  1.00  0.00     0.170 C 
BRANCH  23  24
HETATM   24  O   UNL     1       3.830  -6.763  13.251  1.00  0.00    -0.380 OA
HETATM   25  H   UNL     1       4.773  -7.021  13.183  1.00  0.00     0.211 HD
ENDBRANCH  23  24
ENDBRANCH  19  23
BRANCH  20  26
HETATM   26  O   UNL     1       6.176  -4.083  14.154  1.00  0.00    -0.380 OA
HETATM   27  H   UNL     1       5.564  -3.424  13.786  1.00  0.00     0.211 HD
ENDBRANCH  20  26
BRANCH  21  28
HETATM   28  O   UNL     1       7.649  -3.656  16.572  1.00  0.00    -0.380 OA
HETATM   29  H   UNL     1       8.263  -3.667  15.812  1.00  0.00     0.211 HD
ENDBRANCH  21  28
BRANCH  22  30
HETATM   30  O   UNL     1       8.597  -6.306  17.047  1.00  0.00    -0.378 OA
HETATM   31  H   UNL     1       8.857  -7.240  16.923  1.00  0.00     0.211 HD
ENDBRANCH  22  30
ENDBRANCH   1  17
TORSDOF 12
ENDMDL
MODEL 16
REMARK VINA RESULT:    -4.461     17.130     20.626
REMARK INTER + INTRA:          -8.048
REMARK INTER:                  -6.402
REMARK INTRA:                  -1.645
REMARK UNBOUND:                -1.501
REMARK  12 active torsions:
REMARK  status: ('A' for Active; 'I' for Inactive)
REMARK    1  A    between atoms: O_1  and  C_12 
REMARK    2  A    between atoms: O_1  and  C_14 
REMARK    3  A    between atoms: O_4  and  C_13 
REMARK    4  A    between atoms: O_5  and  C_16 
REMARK    5  A    between atoms: O_6  and  C_17 
REMARK    6  A    between atoms: O_7  and  C_18 
REMARK    7  A    between atoms: O_8  and  C_19 
REMARK    8  A    between atoms: O_9  and  C_21 
REMARK    9  A    between atoms: O_10  and  C_22 
REMARK   10  A    between atoms: O_11  and  C_23 
REMARK   11  A    between atoms: C_15  and  C_22 
REMARK   12  A    between atoms: C_20  and  C_23 
ROOT
HETATM    1  O   UNL     1      -8.768 -20.117  -5.607  1.00  0.00    -0.326 OA
ENDROOT
BRANCH   1   2
HETATM    2  C   UNL     1     -10.100 -19.587  -5.452  1.00  0.00     0.177 C 
HETATM    3  C   UNL     1     -10.175 -18.676  -4.207  1.00  0.00     0.172 C 
HETATM    4  C   UNL     1     -11.469 -17.853  -4.180  1.00  0.00     0.197 C 
HETATM    5  C   UNL     1     -11.716 -17.178  -5.537  1.00  0.00     0.263 C 
HETATM    6  O   UNL     1     -11.712 -18.123  -6.594  1.00  0.00    -0.327 OA
HETATM    7  C   UNL     1     -10.435 -18.772  -6.713  1.00  0.00     0.177 C 
BRANCH   3   8
HETATM    8  O   UNL     1     -10.114 -19.478  -3.013  1.00  0.00    -0.380 OA
HETATM    9  H   UNL     1     -10.524 -20.333  -3.254  1.00  0.00     0.211 HD
ENDBRANCH   3   8
BRANCH   4  10
HETATM   10  O   UNL     1     -11.394 -16.844  -3.158  1.00  0.00    -0.378 OA
HETATM   11  H   UNL     1     -10.487 -16.904  -2.804  1.00  0.00     0.211 HD
ENDBRANCH   4  10
BRANCH   5  12
HETATM   12  O   UNL     1     -12.999 -16.565  -5.499  1.00  0.00    -0.359 OA
HETATM   13  H   UNL     1     -13.442 -16.848  -6.316  1.00  0.00     0.213 HD
ENDBRANCH   5  12
BRANCH   7  14
HETATM   14  C   UNL     1     -10.502 -19.673  -7.952  1.00  0.00     0.170 C 
BRANCH  14  15
HETATM   15  O   UNL     1      -9.242 -19.661  -8.621  1.00  0.00    -0.380 OA
HETATM   16  H   UNL     1      -8.941 -20.590  -8.636  1.00  0.00     0.211 HD
ENDBRANCH  14  15
ENDBRANCH   7  14
ENDBRANCH   1   2
BRANCH   1  17
HETATM   17  C   UNL     1      -7.734 -19.129  -5.501  1.00  0.00     0.266 C 
HETATM   18  O   UNL     1      -7.225 -18.832  -6.796  1.00  0.00    -0.326 OA
HETATM   19  C   UNL     1      -6.223 -17.790  -6.757  1.00  0.00     0.176 C 
HETATM   20  C   UNL     1      -4.993 -18.316  -6.002  1.00  0.00     0.170 C 
HETATM   21  C   UNL     1      -5.428 -18.737  -4.584  1.00  0.00     0.172 C 
HETATM   22  C   UNL     1      -6.612 -19.710  -4.619  1.00  0.00     0.197 C 
BRANCH  19  23
HETATM   23  C   UNL     1      -5.910 -17.404  -8.204  1.00  0.00     0.170 C 
BRANCH  23  24
HETATM   24  O   UNL     1      -6.337 -18.454  -9.075  1.00  0.00    -0.380 OA
HETATM   25  H   UNL     1      -7.269 -18.659  -8.850  1.00  0.00     0.211 HD
ENDBRANCH  23  24
ENDBRANCH  19  23
BRANCH  20  26
HETATM   26  O   UNL     1      -4.417 -19.415  -6.722  1.00  0.00    -0.380 OA
HETATM   27  H   UNL     1      -4.746 -20.248  -6.345  1.00  0.00     0.211 HD
ENDBRANCH  20  26
BRANCH  21  28
HETATM   28  O   UNL     1      -4.342 -19.323  -3.861  1.00  0.00    -0.380 OA
HETATM   29  H   UNL     1      -3.539 -19.135  -4.384  1.00  0.00     0.211 HD
ENDBRANCH  21  28
BRANCH  22  30
HETATM   30  O   UNL     1      -7.068 -19.933  -3.276  1.00  0.00    -0.378 OA
HETATM   31  H   UNL     1      -7.102 -20.902  -3.158  1.00  0.00     0.211 HD
ENDBRANCH  22  30
ENDBRANCH   1  17
TORSDOF 12
ENDMDL
MODEL 17
REMARK VINA RESULT:    -4.439     20.718     23.099
REMARK INTER + INTRA:          -8.016
REMARK INTER:                  -6.666
REMARK INTRA:                  -1.351
REMARK UNBOUND:                -1.501
REMARK  12 active torsions:
REMARK  status: ('A' for Active; 'I' for Inactive)
REMARK    1  A    between atoms: O_1  and  C_12 
REMARK    2  A    between atoms: O_1  and  C_14 
REMARK    3  A    between atoms: O_4  and  C_13 
REMARK    4  A    between atoms: O_5  and  C_16 
REMARK    5  A    between atoms: O_6  and  C_17 
REMARK    6  A    between atoms: O_7  and  C_18 
REMARK    7  A    between atoms: O_8  and  C_19 
REMARK    8  A    between atoms: O_9  and  C_21 
REMARK    9  A    between atoms: O_10  and  C_22 
REMARK   10  A    between atoms: O_11  and  C_23 
REMARK   11  A    between atoms: C_15  and  C_22 
REMARK   12  A    between atoms: C_20  and  C_23 
ROOT
HETATM    1  O   UNL     1       4.855  -6.894  16.044  1.00  0.00    -0.326 OA
ENDROOT
BRANCH   1   2
HETATM    2  C   UNL     1       5.519  -5.678  16.446  1.00  0.00     0.177 C 
HETATM    3  C   UNL     1       5.731  -4.753  15.228  1.00  0.00     0.172 C 
HETATM    4  C   UNL     1       6.144  -3.339  15.652  1.00  0.00     0.197 C 
HETATM    5  C   UNL     1       5.222  -2.809  16.760  1.00  0.00     0.263 C 
HETATM    6  O   UNL     1       5.173  -3.699  17.862  1.00  0.00    -0.327 OA
HETATM    7  C   UNL     1       4.628  -4.974  17.484  1.00  0.00     0.177 C 
BRANCH   3   8
HETATM    8  O   UNL     1       6.758  -5.297  14.378  1.00  0.00    -0.380 OA
HETATM    9  H   UNL     1       6.442  -5.150  13.463  1.00  0.00     0.211 HD
ENDBRANCH   3   8
BRANCH   4  10
HETATM   10  O   UNL     1       6.087  -2.447  14.526  1.00  0.00    -0.378 OA
HETATM   11  H   UNL     1       5.693  -2.971  13.802  1.00  0.00     0.211 HD
ENDBRANCH   4  10
BRANCH   5  12
HETATM   12  O   UNL     1       5.746  -1.569  17.217  1.00  0.00    -0.359 OA
HETATM   13  H   UNL     1       4.970  -1.022  17.419  1.00  0.00     0.213 HD
ENDBRANCH   5  12
BRANCH   7  14
HETATM   14  C   UNL     1       4.506  -5.808  18.765  1.00  0.00     0.170 C 
BRANCH  14  15
HETATM   15  O   UNL     1       3.434  -6.741  18.628  1.00  0.00    -0.380 OA
HETATM   16  H   UNL     1       2.709  -6.249  18.198  1.00  0.00     0.211 HD
ENDBRANCH  14  15
ENDBRANCH   7  14
ENDBRANCH   1   2
BRANCH   1  17
HETATM   17  C   UNL     1       5.707  -8.047  16.040  1.00  0.00     0.266 C 
HETATM   18  O   UNL     1       7.027  -7.662  15.675  1.00  0.00    -0.326 OA
HETATM   19  C   UNL     1       7.947  -8.778  15.719  1.00  0.00     0.176 C 
HETATM   20  C   UNL     1       7.554  -9.785  14.629  1.00  0.00     0.170 C 
HETATM   21  C   UNL     1       6.102 -10.239  14.877  1.00  0.00     0.172 C 
HETATM   22  C   UNL     1       5.148  -9.045  15.007  1.00  0.00     0.197 C 
BRANCH  19  23
HETATM   23  C   UNL     1       9.356  -8.214  15.526  1.00  0.00     0.170 C 
BRANCH  23  24
HETATM   24  O   UNL     1       9.299  -7.094  14.638  1.00  0.00    -0.380 OA
HETATM   25  H   UNL     1       9.562  -7.413  13.750  1.00  0.00     0.211 HD
ENDBRANCH  23  24
ENDBRANCH  19  23
BRANCH  20  26
HETATM   26  O   UNL     1       7.701  -9.181  13.336  1.00  0.00    -0.380 OA
HETATM   27  H   UNL     1       7.129  -9.645  12.703  1.00  0.00     0.211 HD
ENDBRANCH  20  26
BRANCH  21  28
HETATM   28  O   UNL     1       5.646 -11.110  13.839  1.00  0.00    -0.380 OA
HETATM   29  H   UNL     1       6.394 -11.203  13.218  1.00  0.00     0.211 HD
ENDBRANCH  21  28
BRANCH  22  30
HETATM   30  O   UNL     1       3.853  -9.527  15.397  1.00  0.00    -0.378 OA
HETATM   31  H   UNL     1       3.773  -9.347  16.354  1.00  0.00     0.211 HD
ENDBRANCH  22  30
ENDBRANCH   1  17
TORSDOF 12
ENDMDL
MODEL 18
REMARK VINA RESULT:    -4.338     38.280     40.565
REMARK INTER + INTRA:          -7.868
REMARK INTER:                  -6.496
REMARK INTRA:                  -1.372
REMARK UNBOUND:                -1.501
REMARK  12 active torsions:
REMARK  status: ('A' for Active; 'I' for Inactive)
REMARK    1  A    between atoms: O_1  and  C_12 
REMARK    2  A    between atoms: O_1  and  C_14 
REMARK    3  A    between atoms: O_4  and  C_13 
REMARK    4  A    between atoms: O_5  and  C_16 
REMARK    5  A    between atoms: O_6  and  C_17 
REMARK    6  A    between atoms: O_7  and  C_18 
REMARK    7  A    between atoms: O_8  and  C_19 
REMARK    8  A    between atoms: O_9  and  C_21 
REMARK    9  A    between atoms: O_10  and  C_22 
REMARK   10  A    between atoms: O_11  and  C_23 
REMARK   11  A    between atoms: C_15  and  C_22 
REMARK   12  A    between atoms: C_20  and  C_23 
ROOT
HETATM    1  O   UNL     1      -0.477  16.813 -10.131  1.00  0.00    -0.326 OA
ENDROOT
BRANCH   1   2
HETATM    2  C   UNL     1       0.673  17.191 -10.914  1.00  0.00     0.177 C 
HETATM    3  C   UNL     1       0.554  16.631 -12.348  1.00  0.00     0.172 C 
HETATM    4  C   UNL     1       1.586  17.260 -13.293  1.00  0.00     0.197 C 
HETATM    5  C   UNL     1       1.592  18.789 -13.155  1.00  0.00     0.263 C 
HETATM    6  O   UNL     1       1.795  19.187 -11.810  1.00  0.00    -0.327 OA
HETATM    7  C   UNL     1       0.731  18.728 -10.960  1.00  0.00     0.177 C 
BRANCH   3   8
HETATM    8  O   UNL     1       0.754  15.205 -12.332  1.00  0.00    -0.380 OA
HETATM    9  H   UNL     1       0.714  14.927 -13.269  1.00  0.00     0.211 HD
ENDBRANCH   3   8
BRANCH   4  10
HETATM   10  O   UNL     1       1.287  16.911 -14.656  1.00  0.00    -0.378 OA
HETATM   11  H   UNL     1       2.104  17.106 -15.156  1.00  0.00     0.211 HD
ENDBRANCH   4  10
BRANCH   5  12
HETATM   12  O   UNL     1       2.668  19.299 -13.933  1.00  0.00    -0.359 OA
HETATM   13  H   UNL     1       3.087  19.976 -13.377  1.00  0.00     0.213 HD
ENDBRANCH   5  12
BRANCH   7  14
HETATM   14  C   UNL     1       0.985  19.313  -9.565  1.00  0.00     0.170 C 
BRANCH  14  15
HETATM   15  O   UNL     1       1.827  18.432  -8.822  1.00  0.00    -0.380 OA
HETATM   16  H   UNL     1       2.694  18.454  -9.271  1.00  0.00     0.211 HD
ENDBRANCH  14  15
ENDBRANCH   7  14
ENDBRANCH   1   2
BRANCH   1  17
HETATM   17  C   UNL     1      -0.205  15.806  -9.147  1.00  0.00     0.266 C 
HETATM   18  O   UNL     1      -0.554  14.528  -9.666  1.00  0.00    -0.326 OA
HETATM   19  C   UNL     1      -0.238  13.464  -8.738  1.00  0.00     0.176 C 
HETATM   20  C   UNL     1      -1.135  13.605  -7.500  1.00  0.00     0.170 C 
HETATM   21  C   UNL     1      -0.894  14.993  -6.872  1.00  0.00     0.172 C 
HETATM   22  C   UNL     1      -1.057  16.117  -7.902  1.00  0.00     0.197 C 
BRANCH  19  23
HETATM   23  C   UNL     1      -0.449  12.140  -9.475  1.00  0.00     0.170 C 
BRANCH  23  24
HETATM   24  O   UNL     1      -0.696  11.103  -8.522  1.00  0.00    -0.380 OA
HETATM   25  H   UNL     1      -0.194  11.328  -7.711  1.00  0.00     0.211 HD
ENDBRANCH  23  24
ENDBRANCH  19  23
BRANCH  20  26
HETATM   26  O   UNL     1      -2.508  13.430  -7.875  1.00  0.00    -0.380 OA
HETATM   27  H   UNL     1      -2.552  12.859  -8.660  1.00  0.00     0.211 HD
ENDBRANCH  20  26
BRANCH  21  28
HETATM   28  O   UNL     1      -1.771  15.221  -5.766  1.00  0.00    -0.380 OA
HETATM   29  H   UNL     1      -1.194  15.366  -4.991  1.00  0.00     0.211 HD
ENDBRANCH  21  28
BRANCH  22  30
HETATM   30  O   UNL     1      -0.664  17.359  -7.298  1.00  0.00    -0.378 OA
HETATM   31  H   UNL     1       0.281  17.260  -7.067  1.00  0.00     0.211 HD
ENDBRANCH  22  30
ENDBRANCH   1  17
TORSDOF 12
ENDMDL
MODEL 19
REMARK VINA RESULT:    -4.302     29.896     32.642
REMARK INTER + INTRA:          -7.814
REMARK INTER:                  -6.229
REMARK INTRA:                  -1.585
REMARK UNBOUND:                -1.501
REMARK  12 active torsions:
REMARK  status: ('A' for Active; 'I' for Inactive)
REMARK    1  A    between atoms: O_1  and  C_12 
REMARK    2  A    between atoms: O_1  and  C_14 
REMARK    3  A    between atoms: O_4  and  C_13 
REMARK    4  A    between atoms: O_5  and  C_16 
REMARK    5  A    between atoms: O_6  and  C_17 
REMARK    6  A    between atoms: O_7  and  C_18 
REMARK    7  A    between atoms: O_8  and  C_19 
REMARK    8  A    between atoms: O_9  and  C_21 
REMARK    9  A    between atoms: O_10  and  C_22 
REMARK   10  A    between atoms: O_11  and  C_23 
REMARK   11  A    between atoms: C_15  and  C_22 
REMARK   12  A    between atoms: C_20  and  C_23 
ROOT
HETATM    1  O   UNL     1       1.657  -2.306 -11.935  1.00  0.00    -0.326 OA
ENDROOT
BRANCH   1   2
HETATM    2  C   UNL     1       2.796  -1.427 -11.833  1.00  0.00     0.177 C 
HETATM    3  C   UNL     1       3.976  -2.153 -11.150  1.00  0.00     0.172 C 
HETATM    4  C   UNL     1       5.288  -1.373 -11.300  1.00  0.00     0.197 C 
HETATM    5  C   UNL     1       5.503  -0.940 -12.757  1.00  0.00     0.263 C 
HETATM    6  O   UNL     1       4.394  -0.209 -13.249  1.00  0.00    -0.327 OA
HETATM    7  C   UNL     1       3.199  -1.007 -13.257  1.00  0.00     0.177 C 
BRANCH   3   8
HETATM    8  O   UNL     1       3.698  -2.321  -9.748  1.00  0.00    -0.380 OA
HETATM    9  H   UNL     1       4.386  -1.804  -9.283  1.00  0.00     0.211 HD
ENDBRANCH   3   8
BRANCH   4  10
HETATM   10  O   UNL     1       6.398  -2.185 -10.881  1.00  0.00    -0.378 OA
HETATM   11  H   UNL     1       6.411  -2.121  -9.907  1.00  0.00     0.211 HD
ENDBRANCH   4  10
BRANCH   5  12
HETATM   12  O   UNL     1       6.645  -0.094 -12.804  1.00  0.00    -0.359 OA
HETATM   13  H   UNL     1       7.402  -0.675 -12.619  1.00  0.00     0.213 HD
ENDBRANCH   5  12
BRANCH   7  14
HETATM   14  C   UNL     1       2.100  -0.166 -13.917  1.00  0.00     0.170 C 
BRANCH  14  15
HETATM   15  O   UNL     1       1.234  -1.015 -14.670  1.00  0.00    -0.380 OA
HETATM   16  H   UNL     1       0.486  -1.222 -14.078  1.00  0.00     0.211 HD
ENDBRANCH  14  15
ENDBRANCH   7  14
ENDBRANCH   1   2
BRANCH   1  17
HETATM   17  C   UNL     1       1.983  -3.630 -12.381  1.00  0.00     0.266 C 
HETATM   18  O   UNL     1       1.638  -3.767 -13.755  1.00  0.00    -0.326 OA
HETATM   19  C   UNL     1       2.007  -5.064 -14.277  1.00  0.00     0.176 C 
HETATM   20  C   UNL     1       1.153  -6.137 -13.584  1.00  0.00     0.170 C 
HETATM   21  C   UNL     1       1.392  -6.051 -12.063  1.00  0.00     0.172 C 
HETATM   22  C   UNL     1       1.171  -4.628 -11.534  1.00  0.00     0.197 C 
BRANCH  19  23
HETATM   23  C   UNL     1       1.793  -5.024 -15.792  1.00  0.00     0.170 C 
BRANCH  23  24
HETATM   24  O   UNL     1       0.920  -3.938 -16.116  1.00  0.00    -0.380 OA
HETATM   25  H   UNL     1       0.002  -4.278 -16.067  1.00  0.00     0.211 HD
ENDBRANCH  23  24
ENDBRANCH  19  23
BRANCH  20  26
HETATM   26  O   UNL     1      -0.230  -5.940 -13.910  1.00  0.00    -0.380 OA
HETATM   27  H   UNL     1      -0.307  -5.187 -14.519  1.00  0.00     0.211 HD
ENDBRANCH  20  26
BRANCH  21  28
HETATM   28  O   UNL     1       0.552  -6.965 -11.354  1.00  0.00    -0.380 OA
HETATM   29  H   UNL     1       0.665  -7.830 -11.794  1.00  0.00     0.211 HD
ENDBRANCH  21  28
BRANCH  22  30
HETATM   30  O   UNL     1       1.565  -4.581 -10.154  1.00  0.00    -0.378 OA
HETATM   31  H   UNL     1       0.897  -5.099  -9.664  1.00  0.00     0.211 HD
ENDBRANCH  22  30
ENDBRANCH   1  17
TORSDOF 12
ENDMDL
MODEL 20
REMARK VINA RESULT:    -4.156     44.960     48.047
REMARK INTER + INTRA:          -7.601
REMARK INTER:                  -6.094
REMARK INTRA:                  -1.507
REMARK UNBOUND:                -1.501
REMARK  12 active torsions:
REMARK  status: ('A' for Active; 'I' for Inactive)
REMARK    1  A    between atoms: O_1  and  C_12 
REMARK    2  A    between atoms: O_1  and  C_14 
REMARK    3  A    between atoms: O_4  and  C_13 
REMARK    4  A    between atoms: O_5  and  C_16 
REMARK    5  A    between atoms: O_6  and  C_17 
REMARK    6  A    between atoms: O_7  and  C_18 
REMARK    7  A    between atoms: O_8  and  C_19 
REMARK    8  A    between atoms: O_9  and  C_21 
REMARK    9  A    between atoms: O_10  and  C_22 
REMARK   10  A    between atoms: O_11  and  C_23 
REMARK   11  A    between atoms: C_15  and  C_22 
REMARK   12  A    between atoms: C_20  and  C_23 
ROOT
HETATM    1  O   UNL     1       8.780   7.020 -23.434  1.00  0.00    -0.326 OA
ENDROOT
BRANCH   1   2
HETATM    2  C   UNL     1       9.605   7.946 -24.170  1.00  0.00     0.177 C 
HETATM    3  C   UNL     1      11.021   8.008 -23.558  1.00  0.00     0.172 C 
HETATM    4  C   UNL     1      12.009   8.731 -24.481  1.00  0.00     0.197 C 
HETATM    5  C   UNL     1      11.908   8.195 -25.917  1.00  0.00     0.263 C 
HETATM    6  O   UNL     1      10.579   8.268 -26.404  1.00  0.00    -0.327 OA
HETATM    7  C   UNL     1       9.689   7.453 -25.625  1.00  0.00     0.177 C 
BRANCH   3   8
HETATM    8  O   UNL     1      10.976   8.702 -22.298  1.00  0.00    -0.380 OA
HETATM    9  H   UNL     1      11.608   9.444 -22.387  1.00  0.00     0.211 HD
ENDBRANCH   3   8
BRANCH   4  10
HETATM   10  O   UNL     1      13.355   8.551 -24.005  1.00  0.00    -0.378 OA
HETATM   11  H   UNL     1      13.359   8.922 -23.102  1.00  0.00     0.211 HD
ENDBRANCH   4  10
BRANCH   5  12
HETATM   12  O   UNL     1      12.728   9.005 -26.750  1.00  0.00    -0.359 OA
HETATM   13  H   UNL     1      12.179   9.216 -27.522  1.00  0.00     0.213 HD
ENDBRANCH   5  12
BRANCH   7  14
HETATM   14  C   UNL     1       8.316   7.507 -26.307  1.00  0.00     0.170 C 
BRANCH  14  15
HETATM   15  O   UNL     1       7.605   6.296 -26.049  1.00  0.00    -0.380 OA
HETATM   16  H   UNL     1       6.863   6.545 -25.465  1.00  0.00     0.211 HD
ENDBRANCH  14  15
ENDBRANCH   7  14
ENDBRANCH   1   2
BRANCH   1  17
HETATM   17  C   UNL     1       7.642   7.627 -22.807  1.00  0.00     0.266 C 
HETATM   18  O   UNL     1       8.062   8.347 -21.654  1.00  0.00    -0.326 OA
HETATM   19  C   UNL     1       6.962   9.036 -21.017  1.00  0.00     0.176 C 
HETATM   20  C   UNL     1       5.986   7.993 -20.452  1.00  0.00     0.170 C 
HETATM   21  C   UNL     1       5.499   7.097 -21.608  1.00  0.00     0.172 C 
HETATM   22  C   UNL     1       6.671   6.503 -22.398  1.00  0.00     0.197 C 
BRANCH  19  23
HETATM   23  C   UNL     1       7.556   9.940 -19.935  1.00  0.00     0.170 C 
BRANCH  23  24
HETATM   24  O   UNL     1       8.627   9.253 -19.282  1.00  0.00    -0.380 OA
HETATM   25  H   UNL     1       9.465   9.647 -19.604  1.00  0.00     0.211 HD
ENDBRANCH  23  24
ENDBRANCH  19  23
BRANCH  20  26
HETATM   26  O   UNL     1       6.637   7.225 -19.431  1.00  0.00    -0.380 OA
HETATM   27  H   UNL     1       5.964   6.763 -18.904  1.00  0.00     0.211 HD
ENDBRANCH  20  26
BRANCH  21  28
HETATM   28  O   UNL     1       4.657   6.046 -21.129  1.00  0.00    -0.380 OA
HETATM   29  H   UNL     1       3.740   6.335 -21.304  1.00  0.00     0.211 HD
ENDBRANCH  21  28
BRANCH  22  30
HETATM   30  O   UNL     1       6.153   5.817 -23.549  1.00  0.00    -0.378 OA
HETATM   31  H   UNL     1       5.247   5.540 -23.314  1.00  0.00     0.211 HD
ENDBRANCH  22  30
ENDBRANCH   1  17
TORSDOF 12
ENDMDL
