MODEL 1
REMARK VINA RESULT:    -5.930      0.000      0.000
REMARK INTER + INTRA:          -9.818
REMARK INTER:                  -8.703
REMARK INTRA:                  -1.115
REMARK UNBOUND:                -1.115
REMARK  12 active torsions:
REMARK  status: ('A' for Active; 'I' for Inactive)
REMARK    1  A    between atoms: O_1  and  C_12 
REMARK    2  A    between atoms: O_1  and  C_14 
REMARK    3  A    between atoms: O_4  and  C_13 
REMARK    4  A    between atoms: O_5  and  C_16 
REMARK    5  A    between atoms: O_6  and  C_17 
REMARK    6  A    between atoms: O_7  and  C_18 
REMARK    7  A    between atoms: O_8  and  C_19 
REMARK    8  A    between atoms: O_9  and  C_21 
REMARK    9  A    between atoms: O_10  and  C_22 
REMARK   10  A    between atoms: O_11  and  C_23 
REMARK   11  A    between atoms: C_15  and  C_22 
REMARK   12  A    between atoms: C_20  and  C_23 
ROOT
HETATM    1  O   UNL     1       8.014   2.212 -12.154  1.00  0.00    -0.326 OA
ENDROOT
BRANCH   1   2
HETATM    2  C   UNL     1       6.811   1.491 -11.820  1.00  0.00     0.177 C 
HETATM    3  C   UNL     1       6.841   0.078 -12.442  1.00  0.00     0.172 C 
HETATM    4  C   UNL     1       5.743  -0.823 -11.863  1.00  0.00     0.197 C 
HETATM    5  C   UNL     1       5.731  -0.752 -10.329  1.00  0.00     0.263 C 
HETATM    6  O   UNL     1       5.612   0.585  -9.874  1.00  0.00    -0.327 OA
HETATM    7  C   UNL     1       6.735   1.382 -10.287  1.00  0.00     0.177 C 
BRANCH   3   8
HETATM    8  O   UNL     1       6.657   0.170 -13.866  1.00  0.00    -0.380 OA
HETATM    9  H   UNL     1       5.738   0.481 -13.990  1.00  0.00     0.211 HD
ENDBRANCH   3   8
BRANCH   4  10
HETATM   10  O   UNL     1       5.955  -2.186 -12.269  1.00  0.00    -0.378 OA
HETATM   11  H   UNL     1       5.061  -2.564 -12.376  1.00  0.00     0.211 HD
ENDBRANCH   4  10
BRANCH   5  12
HETATM   12  O   UNL     1       4.601  -1.478  -9.862  1.00  0.00    -0.359 OA
HETATM   13  H   UNL     1       3.836  -0.907 -10.043  1.00  0.00     0.213 HD
ENDBRANCH   5  12
BRANCH   7  14
HETATM   14  C   UNL     1       6.568   2.763  -9.642  1.00  0.00     0.170 C 
BRANCH  14  15
HETATM   15  O   UNL     1       5.733   3.578 -10.465  1.00  0.00    -0.380 OA
HETATM   16  H   UNL     1       4.845   3.543 -10.058  1.00  0.00     0.211 HD
ENDBRANCH  14  15
ENDBRANCH   7  14
ENDBRANCH   1   2
BRANCH   1  17
HETATM   17  C   UNL     1       7.786   3.395 -12.932  1.00  0.00     0.266 C 
HETATM   18  O   UNL     1       7.937   3.091 -14.314  1.00  0.00    -0.326 OA
HETATM   19  C   UNL     1       7.651   4.235 -15.152  1.00  0.00     0.176 C 
HETATM   20  C   UNL     1       8.720   5.309 -14.903  1.00  0.00     0.170 C 
HETATM   21  C   UNL     1       8.702   5.685 -13.408  1.00  0.00     0.172 C 
HETATM   22  C   UNL     1       8.828   4.448 -12.510  1.00  0.00     0.197 C 
BRANCH  19  23
HETATM   23  C   UNL     1       7.631   3.744 -16.601  1.00  0.00     0.170 C 
BRANCH  23  24
HETATM   24  O   UNL     1       7.938   4.835 -17.473  1.00  0.00    -0.380 OA
HETATM   25  H   UNL     1       7.209   5.484 -17.395  1.00  0.00     0.211 HD
ENDBRANCH  23  24
ENDBRANCH  19  23
BRANCH  20  26
HETATM   26  O   UNL     1      10.005   4.815 -15.304  1.00  0.00    -0.380 OA
HETATM   27  H   UNL     1      10.016   3.848 -15.211  1.00  0.00     0.211 HD
ENDBRANCH  20  26
BRANCH  21  28
HETATM   28  O   UNL     1       9.741   6.616 -13.094  1.00  0.00    -0.380 OA
HETATM   29  H   UNL     1       9.336   7.284 -12.507  1.00  0.00     0.211 HD
ENDBRANCH  21  28
BRANCH  22  30
HETATM   30  O   UNL     1       8.642   4.847 -11.143  1.00  0.00    -0.378 OA
HETATM   31  H   UNL     1       9.449   5.336 -10.892  1.00  0.00     0.211 HD
ENDBRANCH  22  30
ENDBRANCH   1  17
TORSDOF 12
ENDMDL
MODEL 2
REMARK VINA RESULT:    -5.888      1.990      2.993
REMARK INTER + INTRA:          -9.756
REMARK INTER:                  -8.143
REMARK INTRA:                  -1.613
REMARK UNBOUND:                -1.115
REMARK  12 active torsions:
REMARK  status: ('A' for Active; 'I' for Inactive)
REMARK    1  A    between atoms: O_1  and  C_12 
REMARK    2  A    between atoms: O_1  and  C_14 
REMARK    3  A    between atoms: O_4  and  C_13 
REMARK    4  A    between atoms: O_5  and  C_16 
REMARK    5  A    between atoms: O_6  and  C_17 
REMARK    6  A    between atoms: O_7  and  C_18 
REMARK    7  A    between atoms: O_8  and  C_19 
REMARK    8  A    between atoms: O_9  and  C_21 
REMARK    9  A    between atoms: O_10  and  C_22 
REMARK   10  A    between atoms: O_11  and  C_23 
REMARK   11  A    between atoms: C_15  and  C_22 
REMARK   12  A    between atoms: C_20  and  C_23 
ROOT
HETATM    1  O   UNL     1       9.299   2.279 -12.193  1.00  0.00    -0.326 OA
ENDROOT
BRANCH   1   2
HETATM    2  C   UNL     1       8.660   1.042 -11.815  1.00  0.00     0.177 C 
HETATM    3  C   UNL     1       7.125   1.191 -11.872  1.00  0.00     0.172 C 
HETATM    4  C   UNL     1       6.417  -0.167 -11.784  1.00  0.00     0.197 C 
HETATM    5  C   UNL     1       7.044  -1.174 -12.760  1.00  0.00     0.263 C 
HETATM    6  O   UNL     1       8.441  -1.291 -12.557  1.00  0.00    -0.327 OA
HETATM    7  C   UNL     1       9.114  -0.046 -12.803  1.00  0.00     0.177 C 
BRANCH   3   8
HETATM    8  O   UNL     1       6.675   2.016 -10.782  1.00  0.00    -0.380 OA
HETATM    9  H   UNL     1       5.710   1.860 -10.719  1.00  0.00     0.211 HD
ENDBRANCH   3   8
BRANCH   4  10
HETATM   10  O   UNL     1       5.020  -0.020 -12.092  1.00  0.00    -0.378 OA
HETATM   11  H   UNL     1       4.802  -0.779 -12.666  1.00  0.00     0.211 HD
ENDBRANCH   4  10
BRANCH   5  12
HETATM   12  O   UNL     1       6.455  -2.446 -12.521  1.00  0.00    -0.359 OA
HETATM   13  H   UNL     1       5.606  -2.259 -12.089  1.00  0.00     0.213 HD
ENDBRANCH   5  12
BRANCH   7  14
HETATM   14  C   UNL     1      10.619  -0.315 -12.677  1.00  0.00     0.170 C 
BRANCH  14  15
HETATM   15  O   UNL     1      11.326   0.458 -13.647  1.00  0.00    -0.380 OA
HETATM   16  H   UNL     1      11.507   1.318 -13.220  1.00  0.00     0.211 HD
ENDBRANCH  14  15
ENDBRANCH   7  14
ENDBRANCH   1   2
BRANCH   1  17
HETATM   17  C   UNL     1       8.738   2.889 -13.363  1.00  0.00     0.266 C 
HETATM   18  O   UNL     1       9.610   2.686 -14.469  1.00  0.00    -0.326 OA
HETATM   19  C   UNL     1       9.062   3.223 -15.695  1.00  0.00     0.176 C 
HETATM   20  C   UNL     1       8.987   4.753 -15.574  1.00  0.00     0.170 C 
HETATM   21  C   UNL     1       8.108   5.109 -14.358  1.00  0.00     0.172 C 
HETATM   22  C   UNL     1       8.585   4.396 -13.086  1.00  0.00     0.197 C 
BRANCH  19  23
HETATM   23  C   UNL     1       9.967   2.763 -16.839  1.00  0.00     0.170 C 
BRANCH  23  24
HETATM   24  O   UNL     1      11.204   2.290 -16.301  1.00  0.00    -0.380 OA
HETATM   25  H   UNL     1      11.045   1.386 -15.957  1.00  0.00     0.211 HD
ENDBRANCH  23  24
ENDBRANCH  19  23
BRANCH  20  26
HETATM   26  O   UNL     1      10.309   5.293 -15.442  1.00  0.00    -0.380 OA
HETATM   27  H   UNL     1      10.870   4.648 -14.980  1.00  0.00     0.211 HD
ENDBRANCH  20  26
BRANCH  21  28
HETATM   28  O   UNL     1       8.076   6.521 -14.137  1.00  0.00    -0.380 OA
HETATM   29  H   UNL     1       8.981   6.772 -13.869  1.00  0.00     0.211 HD
ENDBRANCH  21  28
BRANCH  22  30
HETATM   30  O   UNL     1       7.637   4.639 -12.036  1.00  0.00    -0.378 OA
HETATM   31  H   UNL     1       7.110   3.821 -11.952  1.00  0.00     0.211 HD
ENDBRANCH  22  30
ENDBRANCH   1  17
TORSDOF 12
ENDMDL
MODEL 3
REMARK VINA RESULT:    -5.883      1.283      6.394
REMARK INTER + INTRA:          -9.750
REMARK INTER:                  -8.741
REMARK INTRA:                  -1.008
REMARK UNBOUND:                -1.115
REMARK  12 active torsions:
REMARK  status: ('A' for Active; 'I' for Inactive)
REMARK    1  A    between atoms: O_1  and  C_12 
REMARK    2  A    between atoms: O_1  and  C_14 
REMARK    3  A    between atoms: O_4  and  C_13 
REMARK    4  A    between atoms: O_5  and  C_16 
REMARK    5  A    between atoms: O_6  and  C_17 
REMARK    6  A    between atoms: O_7  and  C_18 
REMARK    7  A    between atoms: O_8  and  C_19 
REMARK    8  A    between atoms: O_9  and  C_21 
REMARK    9  A    between atoms: O_10  and  C_22 
REMARK   10  A    between atoms: O_11  and  C_23 
REMARK   11  A    between atoms: C_15  and  C_22 
REMARK   12  A    between atoms: C_20  and  C_23 
ROOT
HETATM    1  O   UNL     1       7.398   3.819 -13.205  1.00  0.00    -0.326 OA
ENDROOT
BRANCH   1   2
HETATM    2  C   UNL     1       8.447   4.011 -14.176  1.00  0.00     0.177 C 
HETATM    3  C   UNL     1       7.920   3.733 -15.600  1.00  0.00     0.172 C 
HETATM    4  C   UNL     1       8.898   4.221 -16.676  1.00  0.00     0.197 C 
HETATM    5  C   UNL     1       9.358   5.657 -16.385  1.00  0.00     0.263 C 
HETATM    6  O   UNL     1       9.903   5.772 -15.083  1.00  0.00    -0.327 OA
HETATM    7  C   UNL     1       8.925   5.470 -14.074  1.00  0.00     0.177 C 
BRANCH   3   8
HETATM    8  O   UNL     1       7.711   2.320 -15.775  1.00  0.00    -0.380 OA
HETATM    9  H   UNL     1       8.548   1.978 -16.151  1.00  0.00     0.211 HD
ENDBRANCH   3   8
BRANCH   4  10
HETATM   10  O   UNL     1       8.273   4.180 -17.971  1.00  0.00    -0.378 OA
HETATM   11  H   UNL     1       7.485   4.751 -17.894  1.00  0.00     0.211 HD
ENDBRANCH   4  10
BRANCH   5  12
HETATM   12  O   UNL     1      10.375   5.994 -17.321  1.00  0.00    -0.359 OA
HETATM   13  H   UNL     1      10.911   5.190 -17.416  1.00  0.00     0.213 HD
ENDBRANCH   5  12
BRANCH   7  14
HETATM   14  C   UNL     1       9.580   5.744 -12.715  1.00  0.00     0.170 C 
BRANCH  14  15
HETATM   15  O   UNL     1      10.551   6.781 -12.852  1.00  0.00    -0.380 OA
HETATM   16  H   UNL     1      11.133   6.703 -12.072  1.00  0.00     0.211 HD
ENDBRANCH  14  15
ENDBRANCH   7  14
ENDBRANCH   1   2
BRANCH   1  17
HETATM   17  C   UNL     1       7.639   2.736 -12.297  1.00  0.00     0.266 C 
HETATM   18  O   UNL     1       7.142   1.526 -12.856  1.00  0.00    -0.326 OA
HETATM   19  C   UNL     1       7.418   0.387 -12.009  1.00  0.00     0.176 C 
HETATM   20  C   UNL     1       6.617   0.534 -10.707  1.00  0.00     0.170 C 
HETATM   21  C   UNL     1       7.023   1.856 -10.025  1.00  0.00     0.172 C 
HETATM   22  C   UNL     1       6.899   3.048 -10.982  1.00  0.00     0.197 C 
BRANCH  19  23
HETATM   23  C   UNL     1       7.040  -0.869 -12.798  1.00  0.00     0.170 C 
BRANCH  23  24
HETATM   24  O   UNL     1       6.635  -1.895 -11.887  1.00  0.00    -0.380 OA
HETATM   25  H   UNL     1       7.292  -1.915 -11.161  1.00  0.00     0.211 HD
ENDBRANCH  23  24
ENDBRANCH  19  23
BRANCH  20  26
HETATM   26  O   UNL     1       5.213   0.502 -10.995  1.00  0.00    -0.380 OA
HETATM   27  H   UNL     1       4.807  -0.235 -10.510  1.00  0.00     0.211 HD
ENDBRANCH  20  26
BRANCH  21  28
HETATM   28  O   UNL     1       6.243   2.095  -8.851  1.00  0.00    -0.380 OA
HETATM   29  H   UNL     1       6.680   2.835  -8.385  1.00  0.00     0.211 HD
ENDBRANCH  21  28
BRANCH  22  30
HETATM   30  O   UNL     1       7.443   4.213 -10.342  1.00  0.00    -0.378 OA
HETATM   31  H   UNL     1       7.358   4.941 -10.988  1.00  0.00     0.211 HD
ENDBRANCH  22  30
ENDBRANCH   1  17
TORSDOF 12
ENDMDL
MODEL 4
REMARK VINA RESULT:    -5.873      1.468      6.905
REMARK INTER + INTRA:          -9.734
REMARK INTER:                  -8.300
REMARK INTRA:                  -1.434
REMARK UNBOUND:                -1.115
REMARK  12 active torsions:
REMARK  status: ('A' for Active; 'I' for Inactive)
REMARK    1  A    between atoms: O_1  and  C_12 
REMARK    2  A    between atoms: O_1  and  C_14 
REMARK    3  A    between atoms: O_4  and  C_13 
REMARK    4  A    between atoms: O_5  and  C_16 
REMARK    5  A    between atoms: O_6  and  C_17 
REMARK    6  A    between atoms: O_7  and  C_18 
REMARK    7  A    between atoms: O_8  and  C_19 
REMARK    8  A    between atoms: O_9  and  C_21 
REMARK    9  A    between atoms: O_10  and  C_22 
REMARK   10  A    between atoms: O_11  and  C_23 
REMARK   11  A    between atoms: C_15  and  C_22 
REMARK   12  A    between atoms: C_20  and  C_23 
ROOT
HETATM    1  O   UNL     1       8.226   1.900 -13.049  1.00  0.00    -0.326 OA
ENDROOT
BRANCH   1   2
HETATM    2  C   UNL     1       8.039   2.947 -14.023  1.00  0.00     0.177 C 
HETATM    3  C   UNL     1       8.256   4.331 -13.373  1.00  0.00     0.172 C 
HETATM    4  C   UNL     1       8.374   5.441 -14.423  1.00  0.00     0.197 C 
HETATM    5  C   UNL     1       9.361   5.044 -15.530  1.00  0.00     0.263 C 
HETATM    6  O   UNL     1       9.012   3.800 -16.113  1.00  0.00    -0.327 OA
HETATM    7  C   UNL     1       9.066   2.735 -15.149  1.00  0.00     0.177 C 
BRANCH   3   8
HETATM    8  O   UNL     1       7.152   4.637 -12.501  1.00  0.00    -0.380 OA
HETATM    9  H   UNL     1       6.586   3.838 -12.508  1.00  0.00     0.211 HD
ENDBRANCH   3   8
BRANCH   4  10
HETATM   10  O   UNL     1       8.822   6.661 -13.808  1.00  0.00    -0.378 OA
HETATM   11  H   UNL     1       8.517   7.375 -14.399  1.00  0.00     0.211 HD
ENDBRANCH   4  10
BRANCH   5  12
HETATM   12  O   UNL     1       9.309   6.037 -16.547  1.00  0.00    -0.359 OA
HETATM   13  H   UNL     1       9.031   6.851 -16.096  1.00  0.00     0.213 HD
ENDBRANCH   5  12
BRANCH   7  14
HETATM   14  C   UNL     1       8.795   1.429 -15.906  1.00  0.00     0.170 C 
BRANCH  14  15
HETATM   15  O   UNL     1       7.394   1.158 -15.906  1.00  0.00    -0.380 OA
HETATM   16  H   UNL     1       6.972   1.945 -16.302  1.00  0.00     0.211 HD
ENDBRANCH  14  15
ENDBRANCH   7  14
ENDBRANCH   1   2
BRANCH   1  17
HETATM   17  C   UNL     1       7.005   1.408 -12.482  1.00  0.00     0.266 C 
HETATM   18  O   UNL     1       6.800   2.002 -11.205  1.00  0.00    -0.326 OA
HETATM   19  C   UNL     1       5.545   1.592 -10.614  1.00  0.00     0.176 C 
HETATM   20  C   UNL     1       5.614   0.090 -10.302  1.00  0.00     0.170 C 
HETATM   21  C   UNL     1       5.897  -0.673 -11.612  1.00  0.00     0.172 C 
HETATM   22  C   UNL     1       7.133  -0.120 -12.334  1.00  0.00     0.197 C 
BRANCH  19  23
HETATM   23  C   UNL     1       5.330   2.448  -9.363  1.00  0.00     0.170 C 
BRANCH  23  24
HETATM   24  O   UNL     1       6.572   2.588  -8.668  1.00  0.00    -0.380 OA
HETATM   25  H   UNL     1       6.411   2.340  -7.733  1.00  0.00     0.211 HD
ENDBRANCH  23  24
ENDBRANCH  19  23
BRANCH  20  26
HETATM   26  O   UNL     1       6.631  -0.155  -9.321  1.00  0.00    -0.380 OA
HETATM   27  H   UNL     1       6.943  -1.071  -9.411  1.00  0.00     0.211 HD
ENDBRANCH  20  26
BRANCH  21  28
HETATM   28  O   UNL     1       6.065  -2.072 -11.372  1.00  0.00    -0.380 OA
HETATM   29  H   UNL     1       6.923  -2.313 -11.771  1.00  0.00     0.211 HD
ENDBRANCH  21  28
BRANCH  22  30
HETATM   30  O   UNL     1       7.245  -0.760 -13.614  1.00  0.00    -0.378 OA
HETATM   31  H   UNL     1       6.627  -0.290 -14.207  1.00  0.00     0.211 HD
ENDBRANCH  22  30
ENDBRANCH   1  17
TORSDOF 12
ENDMDL
MODEL 5
REMARK VINA RESULT:    -5.732      2.133      3.439
REMARK INTER + INTRA:          -9.527
REMARK INTER:                  -7.908
REMARK INTRA:                  -1.619
REMARK UNBOUND:                -1.115
REMARK  12 active torsions:
REMARK  status: ('A' for Active; 'I' for Inactive)
REMARK    1  A    between atoms: O_1  and  C_12 
REMARK    2  A    between atoms: O_1  and  C_14 
REMARK    3  A    between atoms: O_4  and  C_13 
REMARK    4  A    between atoms: O_5  and  C_16 
REMARK    5  A    between atoms: O_6  and  C_17 
REMARK    6  A    between atoms: O_7  and  C_18 
REMARK    7  A    between atoms: O_8  and  C_19 
REMARK    8  A    between atoms: O_9  and  C_21 
REMARK    9  A    between atoms: O_10  and  C_22 
REMARK   10  A    between atoms: O_11  and  C_23 
REMARK   11  A    between atoms: C_15  and  C_22 
REMARK   12  A    between atoms: C_20  and  C_23 
ROOT
HETATM    1  O   UNL     1       9.339   3.641 -12.375  1.00  0.00    -0.326 OA
ENDROOT
BRANCH   1   2
HETATM    2  C   UNL     1       8.762   2.990 -11.225  1.00  0.00     0.177 C 
HETATM    3  C   UNL     1       7.237   3.221 -11.185  1.00  0.00     0.172 C 
HETATM    4  C   UNL     1       6.547   2.301 -10.170  1.00  0.00     0.197 C 
HETATM    5  C   UNL     1       7.014   0.849 -10.344  1.00  0.00     0.263 C 
HETATM    6  O   UNL     1       8.426   0.747 -10.276  1.00  0.00    -0.327 OA
HETATM    7  C   UNL     1       9.057   1.483 -11.336  1.00  0.00     0.177 C 
BRANCH   3   8
HETATM    8  O   UNL     1       6.961   4.588 -10.828  1.00  0.00    -0.380 OA
HETATM    9  H   UNL     1       6.483   4.543  -9.975  1.00  0.00     0.211 HD
ENDBRANCH   3   8
BRANCH   4  10
HETATM   10  O   UNL     1       5.120   2.360 -10.336  1.00  0.00    -0.378 OA
HETATM   11  H   UNL     1       4.818   1.433 -10.297  1.00  0.00     0.211 HD
ENDBRANCH   4  10
BRANCH   5  12
HETATM   12  O   UNL     1       6.465   0.077  -9.283  1.00  0.00    -0.359 OA
HETATM   13  H   UNL     1       6.755  -0.834  -9.451  1.00  0.00     0.213 HD
ENDBRANCH   5  12
BRANCH   7  14
HETATM   14  C   UNL     1      10.562   1.206 -11.243  1.00  0.00     0.170 C 
BRANCH  14  15
HETATM   15  O   UNL     1      11.084   0.956 -12.548  1.00  0.00    -0.380 OA
HETATM   16  H   UNL     1      10.441   0.364 -12.982  1.00  0.00     0.211 HD
ENDBRANCH  14  15
ENDBRANCH   7  14
ENDBRANCH   1   2
BRANCH   1  17
HETATM   17  C   UNL     1       8.673   3.338 -13.609  1.00  0.00     0.266 C 
HETATM   18  O   UNL     1       9.459   2.420 -14.360  1.00  0.00    -0.326 OA
HETATM   19  C   UNL     1       8.803   2.026 -15.587  1.00  0.00     0.176 C 
HETATM   20  C   UNL     1       8.704   3.251 -16.509  1.00  0.00     0.170 C 
HETATM   21  C   UNL     1       7.918   4.357 -15.778  1.00  0.00     0.172 C 
HETATM   22  C   UNL     1       8.510   4.653 -14.394  1.00  0.00     0.197 C 
BRANCH  19  23
HETATM   23  C   UNL     1       9.624   0.889 -16.198  1.00  0.00     0.170 C 
BRANCH  23  24
HETATM   24  O   UNL     1      10.952   0.929 -15.671  1.00  0.00    -0.380 OA
HETATM   25  H   UNL     1      11.429   0.148 -16.021  1.00  0.00     0.211 HD
ENDBRANCH  23  24
ENDBRANCH  19  23
BRANCH  20  26
HETATM   26  O   UNL     1      10.020   3.692 -16.869  1.00  0.00    -0.380 OA
HETATM   27  H   UNL     1      10.370   4.257 -16.160  1.00  0.00     0.211 HD
ENDBRANCH  20  26
BRANCH  21  28
HETATM   28  O   UNL     1       7.872   5.558 -16.551  1.00  0.00    -0.380 OA
HETATM   29  H   UNL     1       7.065   6.030 -16.266  1.00  0.00     0.211 HD
ENDBRANCH  21  28
BRANCH  22  30
HETATM   30  O   UNL     1       7.643   5.567 -13.706  1.00  0.00    -0.378 OA
HETATM   31  H   UNL     1       7.040   5.017 -13.170  1.00  0.00     0.211 HD
ENDBRANCH  22  30
ENDBRANCH   1  17
TORSDOF 12
ENDMDL
MODEL 6
REMARK VINA RESULT:    -5.498      1.701      2.747
REMARK INTER + INTRA:          -9.185
REMARK INTER:                  -7.695
REMARK INTRA:                  -1.489
REMARK UNBOUND:                -1.115
REMARK  12 active torsions:
REMARK  status: ('A' for Active; 'I' for Inactive)
REMARK    1  A    between atoms: O_1  and  C_12 
REMARK    2  A    between atoms: O_1  and  C_14 
REMARK    3  A    between atoms: O_4  and  C_13 
REMARK    4  A    between atoms: O_5  and  C_16 
REMARK    5  A    between atoms: O_6  and  C_17 
REMARK    6  A    between atoms: O_7  and  C_18 
REMARK    7  A    between atoms: O_8  and  C_19 
REMARK    8  A    between atoms: O_9  and  C_21 
REMARK    9  A    between atoms: O_10  and  C_22 
REMARK   10  A    between atoms: O_11  and  C_23 
REMARK   11  A    between atoms: C_15  and  C_22 
REMARK   12  A    between atoms: C_20  and  C_23 
ROOT
HETATM    1  O   UNL     1       9.011   2.723 -13.758  1.00  0.00    -0.326 OA
ENDROOT
BRANCH   1   2
HETATM    2  C   UNL     1       8.050   2.300 -12.769  1.00  0.00     0.177 C 
HETATM    3  C   UNL     1       7.916   0.762 -12.771  1.00  0.00     0.172 C 
HETATM    4  C   UNL     1       7.152   0.255 -11.543  1.00  0.00     0.197 C 
HETATM    5  C   UNL     1       7.699   0.891 -10.257  1.00  0.00     0.263 C 
HETATM    6  O   UNL     1       7.693   2.306 -10.336  1.00  0.00    -0.327 OA
HETATM    7  C   UNL     1       8.547   2.777 -11.392  1.00  0.00     0.177 C 
BRANCH   3   8
HETATM    8  O   UNL     1       7.218   0.337 -13.956  1.00  0.00    -0.380 OA
HETATM    9  H   UNL     1       6.959  -0.592 -13.786  1.00  0.00     0.211 HD
ENDBRANCH   3   8
BRANCH   4  10
HETATM   10  O   UNL     1       7.264  -1.176 -11.445  1.00  0.00    -0.378 OA
HETATM   11  H   UNL     1       6.399  -1.522 -11.740  1.00  0.00     0.211 HD
ENDBRANCH   4  10
BRANCH   5  12
HETATM   12  O   UNL     1       6.856   0.506  -9.179  1.00  0.00    -0.359 OA
HETATM   13  H   UNL     1       6.267   1.264  -9.031  1.00  0.00     0.213 HD
ENDBRANCH   5  12
BRANCH   7  14
HETATM   14  C   UNL     1       8.563   4.308 -11.310  1.00  0.00     0.170 C 
BRANCH  14  15
HETATM   15  O   UNL     1       9.852   4.794 -11.681  1.00  0.00    -0.380 OA
HETATM   16  H   UNL     1       9.754   5.135 -12.591  1.00  0.00     0.211 HD
ENDBRANCH  14  15
ENDBRANCH   7  14
ENDBRANCH   1   2
BRANCH   1  17
HETATM   17  C   UNL     1       8.429   3.394 -14.884  1.00  0.00     0.266 C 
HETATM   18  O   UNL     1       8.131   2.445 -15.901  1.00  0.00    -0.326 OA
HETATM   19  C   UNL     1       7.479   3.058 -17.037  1.00  0.00     0.176 C 
HETATM   20  C   UNL     1       8.470   4.013 -17.719  1.00  0.00     0.170 C 
HETATM   21  C   UNL     1       8.925   5.068 -16.690  1.00  0.00     0.172 C 
HETATM   22  C   UNL     1       9.455   4.417 -15.407  1.00  0.00     0.197 C 
BRANCH  19  23
HETATM   23  C   UNL     1       7.014   1.929 -17.960  1.00  0.00     0.170 C 
BRANCH  23  24
HETATM   24  O   UNL     1       7.120   2.357 -19.320  1.00  0.00    -0.380 OA
HETATM   25  H   UNL     1       7.481   1.605 -19.834  1.00  0.00     0.211 HD
ENDBRANCH  23  24
ENDBRANCH  19  23
BRANCH  20  26
HETATM   26  O   UNL     1       9.583   3.269 -18.234  1.00  0.00    -0.380 OA
HETATM   27  H   UNL     1       9.347   2.909 -19.105  1.00  0.00     0.211 HD
ENDBRANCH  20  26
BRANCH  21  28
HETATM   28  O   UNL     1       9.921   5.933 -17.240  1.00  0.00    -0.380 OA
HETATM   29  H   UNL     1       9.576   6.225 -18.106  1.00  0.00     0.211 HD
ENDBRANCH  21  28
BRANCH  22  30
HETATM   30  O   UNL     1       9.707   5.445 -14.436  1.00  0.00    -0.378 OA
HETATM   31  H   UNL     1       8.831   5.735 -14.115  1.00  0.00     0.211 HD
ENDBRANCH  22  30
ENDBRANCH   1  17
TORSDOF 12
ENDMDL
MODEL 7
REMARK VINA RESULT:    -5.471     30.244     33.431
REMARK INTER + INTRA:          -9.144
REMARK INTER:                  -7.657
REMARK INTRA:                  -1.487
REMARK UNBOUND:                -1.115
REMARK  12 active torsions:
REMARK  status: ('A' for Active; 'I' for Inactive)
REMARK    1  A    between atoms: O_1  and  C_12 
REMARK    2  A    between atoms: O_1  and  C_14 
REMARK    3  A    between atoms: O_4  and  C_13 
REMARK    4  A    between atoms: O_5  and  C_16 
REMARK    5  A    between atoms: O_6  and  C_17 
REMARK    6  A    between atoms: O_7  and  C_18 
REMARK    7  A    between atoms: O_8  and  C_19 
REMARK    8  A    between atoms: O_9  and  C_21 
REMARK    9  A    between atoms: O_10  and  C_22 
REMARK   10  A    between atoms: O_11  and  C_23 
REMARK   11  A    between atoms: C_15  and  C_22 
REMARK   12  A    between atoms: C_20  and  C_23 
ROOT
HETATM    1  O   UNL     1      -3.476 -17.868  11.448  1.00  0.00    -0.326 OA
ENDROOT
BRANCH   1   2
HETATM    2  C   UNL     1      -2.216 -17.937  12.147  1.00  0.00     0.177 C 
HETATM    3  C   UNL     1      -1.343 -16.711  11.804  1.00  0.00     0.172 C 
HETATM    4  C   UNL     1      -0.142 -16.583  12.749  1.00  0.00     0.197 C 
HETATM    5  C   UNL     1      -0.584 -16.719  14.214  1.00  0.00     0.263 C 
HETATM    6  O   UNL     1      -1.301 -17.923  14.428  1.00  0.00    -0.327 OA
HETATM    7  C   UNL     1      -2.512 -17.957  13.657  1.00  0.00     0.177 C 
BRANCH   3   8
HETATM    8  O   UNL     1      -0.855 -16.823  10.454  1.00  0.00    -0.380 OA
HETATM    9  H   UNL     1      -1.034 -15.955  10.040  1.00  0.00     0.211 HD
ENDBRANCH   3   8
BRANCH   4  10
HETATM   10  O   UNL     1       0.499 -15.309  12.567  1.00  0.00    -0.378 OA
HETATM   11  H   UNL     1       0.141 -14.738  13.274  1.00  0.00     0.211 HD
ENDBRANCH   4  10
BRANCH   5  12
HETATM   12  O   UNL     1       0.583 -16.750  15.026  1.00  0.00    -0.359 OA
HETATM   13  H   UNL     1       1.216 -16.157  14.589  1.00  0.00     0.213 HD
ENDBRANCH   5  12
BRANCH   7  14
HETATM   14  C   UNL     1      -3.264 -19.233  14.055  1.00  0.00     0.170 C 
BRANCH  14  15
HETATM   15  O   UNL     1      -4.668 -19.029  13.902  1.00  0.00    -0.380 OA
HETATM   16  H   UNL     1      -5.055 -19.920  13.795  1.00  0.00     0.211 HD
ENDBRANCH  14  15
ENDBRANCH   7  14
ENDBRANCH   1   2
BRANCH   1  17
HETATM   17  C   UNL     1      -3.596 -18.808  10.372  1.00  0.00     0.266 C 
HETATM   18  O   UNL     1      -3.133 -18.211   9.166  1.00  0.00    -0.326 OA
HETATM   19  C   UNL     1      -3.168 -19.139   8.057  1.00  0.00     0.176 C 
HETATM   20  C   UNL     1      -4.633 -19.482   7.747  1.00  0.00     0.170 C 
HETATM   21  C   UNL     1      -5.275 -20.087   9.011  1.00  0.00     0.172 C 
HETATM   22  C   UNL     1      -5.084 -19.182  10.234  1.00  0.00     0.197 C 
BRANCH  19  23
HETATM   23  C   UNL     1      -2.454 -18.469   6.880  1.00  0.00     0.170 C 
BRANCH  23  24
HETATM   24  O   UNL     1      -1.467 -17.564   7.380  1.00  0.00    -0.380 OA
HETATM   25  H   UNL     1      -1.900 -16.691   7.486  1.00  0.00     0.211 HD
ENDBRANCH  23  24
ENDBRANCH  19  23
BRANCH  20  26
HETATM   26  O   UNL     1      -5.326 -18.301   7.319  1.00  0.00    -0.380 OA
HETATM   27  H   UNL     1      -5.836 -17.946   8.066  1.00  0.00     0.211 HD
ENDBRANCH  20  26
BRANCH  21  28
HETATM   28  O   UNL     1      -6.668 -20.343   8.813  1.00  0.00    -0.380 OA
HETATM   29  H   UNL     1      -6.815 -21.265   9.099  1.00  0.00     0.211 HD
ENDBRANCH  21  28
BRANCH  22  30
HETATM   30  O   UNL     1      -5.558 -19.873  11.400  1.00  0.00    -0.378 OA
HETATM   31  H   UNL     1      -4.762 -20.201  11.862  1.00  0.00     0.211 HD
ENDBRANCH  22  30
ENDBRANCH   1  17
TORSDOF 12
ENDMDL
MODEL 8
REMARK VINA RESULT:    -5.343      2.884      5.663
REMARK INTER + INTRA:          -8.957
REMARK INTER:                  -7.488
REMARK INTRA:                  -1.469
REMARK UNBOUND:                -1.115
REMARK  12 active torsions:
REMARK  status: ('A' for Active; 'I' for Inactive)
REMARK    1  A    between atoms: O_1  and  C_12 
REMARK    2  A    between atoms: O_1  and  C_14 
REMARK    3  A    between atoms: O_4  and  C_13 
REMARK    4  A    between atoms: O_5  and  C_16 
REMARK    5  A    between atoms: O_6  and  C_17 
REMARK    6  A    between atoms: O_7  and  C_18 
REMARK    7  A    between atoms: O_8  and  C_19 
REMARK    8  A    between atoms: O_9  and  C_21 
REMARK    9  A    between atoms: O_10  and  C_22 
REMARK   10  A    between atoms: O_11  and  C_23 
REMARK   11  A    between atoms: C_15  and  C_22 
REMARK   12  A    between atoms: C_20  and  C_23 
ROOT
HETATM    1  O   UNL     1       7.268  -0.010 -13.672  1.00  0.00    -0.326 OA
ENDROOT
BRANCH   1   2
HETATM    2  C   UNL     1       6.650   0.692 -12.574  1.00  0.00     0.177 C 
HETATM    3  C   UNL     1       6.098  -0.311 -11.537  1.00  0.00     0.172 C 
HETATM    4  C   UNL     1       5.717   0.380 -10.223  1.00  0.00     0.197 C 
HETATM    5  C   UNL     1       6.846   1.305  -9.744  1.00  0.00     0.263 C 
HETATM    6  O   UNL     1       7.210   2.238 -10.746  1.00  0.00    -0.327 OA
HETATM    7  C   UNL     1       7.721   1.580 -11.917  1.00  0.00     0.177 C 
BRANCH   3   8
HETATM    8  O   UNL     1       4.931  -0.965 -12.068  1.00  0.00    -0.380 OA
HETATM    9  H   UNL     1       4.186  -0.660 -11.511  1.00  0.00     0.211 HD
ENDBRANCH   3   8
BRANCH   4  10
HETATM   10  O   UNL     1       5.450  -0.601  -9.206  1.00  0.00    -0.378 OA
HETATM   11  H   UNL     1       6.042  -1.350  -9.409  1.00  0.00     0.211 HD
ENDBRANCH   4  10
BRANCH   5  12
HETATM   12  O   UNL     1       6.375   2.030  -8.615  1.00  0.00    -0.359 OA
HETATM   13  H   UNL     1       7.152   2.150  -8.046  1.00  0.00     0.213 HD
ENDBRANCH   5  12
BRANCH   7  14
HETATM   14  C   UNL     1       8.196   2.676 -12.879  1.00  0.00     0.170 C 
BRANCH  14  15
HETATM   15  O   UNL     1       9.419   2.276 -13.495  1.00  0.00    -0.380 OA
HETATM   16  H   UNL     1      10.130   2.618 -12.920  1.00  0.00     0.211 HD
ENDBRANCH  14  15
ENDBRANCH   7  14
ENDBRANCH   1   2
BRANCH   1  17
HETATM   17  C   UNL     1       8.242  -0.981 -13.266  1.00  0.00     0.266 C 
HETATM   18  O   UNL     1       9.542  -0.532 -13.629  1.00  0.00    -0.326 OA
HETATM   19  C   UNL     1      10.572  -1.444 -13.184  1.00  0.00     0.176 C 
HETATM   20  C   UNL     1      10.425  -2.767 -13.949  1.00  0.00     0.170 C 
HETATM   21  C   UNL     1       9.016  -3.335 -13.686  1.00  0.00     0.172 C 
HETATM   22  C   UNL     1       7.923  -2.303 -13.992  1.00  0.00     0.197 C 
BRANCH  19  23
HETATM   23  C   UNL     1      11.921  -0.763 -13.430  1.00  0.00     0.170 C 
BRANCH  23  24
HETATM   24  O   UNL     1      11.884   0.564 -12.899  1.00  0.00    -0.380 OA
HETATM   25  H   UNL     1      10.951   0.761 -12.672  1.00  0.00     0.211 HD
ENDBRANCH  23  24
ENDBRANCH  19  23
BRANCH  20  26
HETATM   26  O   UNL     1      10.649  -2.544 -15.348  1.00  0.00    -0.380 OA
HETATM   27  H   UNL     1      10.717  -3.403 -15.799  1.00  0.00     0.211 HD
ENDBRANCH  20  26
BRANCH  21  28
HETATM   28  O   UNL     1       8.784  -4.522 -14.448  1.00  0.00    -0.380 OA
HETATM   29  H   UNL     1       8.725  -4.237 -15.380  1.00  0.00     0.211 HD
ENDBRANCH  21  28
BRANCH  22  30
HETATM   30  O   UNL     1       6.656  -2.833 -13.575  1.00  0.00    -0.378 OA
HETATM   31  H   UNL     1       6.153  -2.079 -13.209  1.00  0.00     0.211 HD
ENDBRANCH  22  30
ENDBRANCH   1  17
TORSDOF 12
ENDMDL
MODEL 9
REMARK VINA RESULT:    -5.315      3.105      5.841
REMARK INTER + INTRA:          -8.915
REMARK INTER:                  -7.527
REMARK INTRA:                  -1.388
REMARK UNBOUND:                -1.115
REMARK  12 active torsions:
REMARK  status: ('A' for Active; 'I' for Inactive)
REMARK    1  A    between atoms: O_1  and  C_12 
REMARK    2  A    between atoms: O_1  and  C_14 
REMARK    3  A    between atoms: O_4  and  C_13 
REMARK    4  A    between atoms: O_5  and  C_16 
REMARK    5  A    between atoms: O_6  and  C_17 
REMARK    6  A    between atoms: O_7  and  C_18 
REMARK    7  A    between atoms: O_8  and  C_19 
REMARK    8  A    between atoms: O_9  and  C_21 
REMARK    9  A    between atoms: O_10  and  C_22 
REMARK   10  A    between atoms: O_11  and  C_23 
REMARK   11  A    between atoms: C_15  and  C_22 
REMARK   12  A    between atoms: C_20  and  C_23 
ROOT
HETATM    1  O   UNL     1       7.208  -0.466 -12.559  1.00  0.00    -0.326 OA
ENDROOT
BRANCH   1   2
HETATM    2  C   UNL     1       7.243   0.227 -11.294  1.00  0.00     0.177 C 
HETATM    3  C   UNL     1       7.539   1.727 -11.511  1.00  0.00     0.172 C 
HETATM    4  C   UNL     1       7.280   2.548 -10.242  1.00  0.00     0.197 C 
HETATM    5  C   UNL     1       5.911   2.202  -9.638  1.00  0.00     0.263 C 
HETATM    6  O   UNL     1       5.787   0.810  -9.402  1.00  0.00    -0.327 OA
HETATM    7  C   UNL     1       5.868   0.060 -10.625  1.00  0.00     0.177 C 
BRANCH   3   8
HETATM    8  O   UNL     1       8.915   1.900 -11.898  1.00  0.00    -0.380 OA
HETATM    9  H   UNL     1       8.886   2.348 -12.767  1.00  0.00     0.211 HD
ENDBRANCH   3   8
BRANCH   4  10
HETATM   10  O   UNL     1       7.320   3.953 -10.544  1.00  0.00    -0.378 OA
HETATM   11  H   UNL     1       6.592   4.101 -11.178  1.00  0.00     0.211 HD
ENDBRANCH   4  10
BRANCH   5  12
HETATM   12  O   UNL     1       5.797   2.873  -8.389  1.00  0.00    -0.359 OA
HETATM   13  H   UNL     1       5.575   3.792  -8.611  1.00  0.00     0.213 HD
ENDBRANCH   5  12
BRANCH   7  14
HETATM   14  C   UNL     1       5.599  -1.408 -10.272  1.00  0.00     0.170 C 
BRANCH  14  15
HETATM   15  O   UNL     1       5.334  -2.146 -11.465  1.00  0.00    -0.380 OA
HETATM   16  H   UNL     1       6.109  -2.725 -11.595  1.00  0.00     0.211 HD
ENDBRANCH  14  15
ENDBRANCH   7  14
ENDBRANCH   1   2
BRANCH   1  17
HETATM   17  C   UNL     1       8.303  -1.370 -12.757  1.00  0.00     0.266 C 
HETATM   18  O   UNL     1       9.485  -0.630 -13.043  1.00  0.00    -0.326 OA
HETATM   19  C   UNL     1      10.639  -1.490 -13.186  1.00  0.00     0.176 C 
HETATM   20  C   UNL     1      10.452  -2.363 -14.436  1.00  0.00     0.170 C 
HETATM   21  C   UNL     1       9.154  -3.181 -14.277  1.00  0.00     0.172 C 
HETATM   22  C   UNL     1       7.955  -2.282 -13.948  1.00  0.00     0.197 C 
BRANCH  19  23
HETATM   23  C   UNL     1      11.872  -0.588 -13.272  1.00  0.00     0.170 C 
BRANCH  23  24
HETATM   24  O   UNL     1      11.657   0.581 -12.478  1.00  0.00    -0.380 OA
HETATM   25  H   UNL     1      11.845   0.339 -11.547  1.00  0.00     0.211 HD
ENDBRANCH  23  24
ENDBRANCH  19  23
BRANCH  20  26
HETATM   26  O   UNL     1      10.410  -1.533 -15.604  1.00  0.00    -0.380 OA
HETATM   27  H   UNL     1      10.271  -2.093 -16.386  1.00  0.00     0.211 HD
ENDBRANCH  20  26
BRANCH  21  28
HETATM   28  O   UNL     1       8.876  -3.946 -15.452  1.00  0.00    -0.380 OA
HETATM   29  H   UNL     1       9.661  -4.510 -15.597  1.00  0.00     0.211 HD
ENDBRANCH  21  28
BRANCH  22  30
HETATM   30  O   UNL     1       6.821  -3.113 -13.654  1.00  0.00    -0.378 OA
HETATM   31  H   UNL     1       6.049  -2.515 -13.621  1.00  0.00     0.211 HD
ENDBRANCH  22  30
ENDBRANCH   1  17
TORSDOF 12
ENDMDL
MODEL 10
REMARK VINA RESULT:    -5.271     21.817     24.521
REMARK INTER + INTRA:          -8.852
REMARK INTER:                  -7.330
REMARK INTRA:                  -1.522
REMARK UNBOUND:                -1.115
REMARK  12 active torsions:
REMARK  status: ('A' for Active; 'I' for Inactive)
REMARK    1  A    between atoms: O_1  and  C_12 
REMARK    2  A    between atoms: O_1  and  C_14 
REMARK    3  A    between atoms: O_4  and  C_13 
REMARK    4  A    between atoms: O_5  and  C_16 
REMARK    5  A    between atoms: O_6  and  C_17 
REMARK    6  A    between atoms: O_7  and  C_18 
REMARK    7  A    between atoms: O_8  and  C_19 
REMARK    8  A    between atoms: O_9  and  C_21 
REMARK    9  A    between atoms: O_10  and  C_22 
REMARK   10  A    between atoms: O_11  and  C_23 
REMARK   11  A    between atoms: C_15  and  C_22 
REMARK   12  A    between atoms: C_20  and  C_23 
ROOT
HETATM    1  O   UNL     1      11.589  19.408 -28.633  1.00  0.00    -0.326 OA
ENDROOT
BRANCH   1   2
HETATM    2  C   UNL     1      10.443  19.824 -29.403  1.00  0.00     0.177 C 
HETATM    3  C   UNL     1      10.893  20.431 -30.750  1.00  0.00     0.172 C 
HETATM    4  C   UNL     1       9.718  20.597 -31.721  1.00  0.00     0.197 C 
HETATM    5  C   UNL     1       8.884  19.310 -31.796  1.00  0.00     0.263 C 
HETATM    6  O   UNL     1       8.454  18.896 -30.510  1.00  0.00    -0.327 OA
HETATM    7  C   UNL     1       9.568  18.584 -29.658  1.00  0.00     0.177 C 
BRANCH   3   8
HETATM    8  O   UNL     1      11.492  21.720 -30.527  1.00  0.00    -0.380 OA
HETATM    9  H   UNL     1      11.936  21.653 -29.657  1.00  0.00     0.211 HD
ENDBRANCH   3   8
BRANCH   4  10
HETATM   10  O   UNL     1      10.202  20.922 -33.036  1.00  0.00    -0.378 OA
HETATM   11  H   UNL     1      10.636  20.108 -33.358  1.00  0.00     0.211 HD
ENDBRANCH   4  10
BRANCH   5  12
HETATM   12  O   UNL     1       7.730  19.576 -32.583  1.00  0.00    -0.359 OA
HETATM   13  H   UNL     1       7.705  18.869 -33.249  1.00  0.00     0.213 HD
ENDBRANCH   5  12
BRANCH   7  14
HETATM   14  C   UNL     1       8.993  18.035 -28.348  1.00  0.00     0.170 C 
BRANCH  14  15
HETATM   15  O   UNL     1       9.886  17.064 -27.802  1.00  0.00    -0.380 OA
HETATM   16  H   UNL     1       9.797  16.274 -28.370  1.00  0.00     0.211 HD
ENDBRANCH  14  15
ENDBRANCH   7  14
ENDBRANCH   1   2
BRANCH   1  17
HETATM   17  C   UNL     1      11.733  20.101 -27.386  1.00  0.00     0.266 C 
HETATM   18  O   UNL     1      12.340  21.368 -27.613  1.00  0.00    -0.326 OA
HETATM   19  C   UNL     1      12.449  22.140 -26.395  1.00  0.00     0.176 C 
HETATM   20  C   UNL     1      13.435  21.436 -25.451  1.00  0.00     0.170 C 
HETATM   21  C   UNL     1      12.918  20.011 -25.172  1.00  0.00     0.172 C 
HETATM   22  C   UNL     1      12.631  19.247 -26.470  1.00  0.00     0.197 C 
BRANCH  19  23
HETATM   23  C   UNL     1      12.906  23.547 -26.788  1.00  0.00     0.170 C 
BRANCH  23  24
HETATM   24  O   UNL     1      13.739  23.466 -27.947  1.00  0.00    -0.380 OA
HETATM   25  H   UNL     1      14.056  22.542 -28.014  1.00  0.00     0.211 HD
ENDBRANCH  23  24
ENDBRANCH  19  23
BRANCH  20  26
HETATM   26  O   UNL     1      14.741  21.414 -26.044  1.00  0.00    -0.380 OA
HETATM   27  H   UNL     1      14.783  20.690 -26.690  1.00  0.00     0.211 HD
ENDBRANCH  20  26
BRANCH  21  28
HETATM   28  O   UNL     1      13.842  19.271 -24.371  1.00  0.00    -0.380 OA
HETATM   29  H   UNL     1      14.217  18.585 -24.956  1.00  0.00     0.211 HD
ENDBRANCH  21  28
BRANCH  22  30
HETATM   30  O   UNL     1      12.004  17.997 -26.144  1.00  0.00    -0.378 OA
HETATM   31  H   UNL     1      12.362  17.342 -26.773  1.00  0.00     0.211 HD
ENDBRANCH  22  30
ENDBRANCH   1  17
TORSDOF 12
ENDMDL
MODEL 11
REMARK VINA RESULT:    -5.034      2.369      6.612
REMARK INTER + INTRA:          -8.504
REMARK INTER:                  -7.051
REMARK INTRA:                  -1.453
REMARK UNBOUND:                -1.115
REMARK  12 active torsions:
REMARK  status: ('A' for Active; 'I' for Inactive)
REMARK    1  A    between atoms: O_1  and  C_12 
REMARK    2  A    between atoms: O_1  and  C_14 
REMARK    3  A    between atoms: O_4  and  C_13 
REMARK    4  A    between atoms: O_5  and  C_16 
REMARK    5  A    between atoms: O_6  and  C_17 
REMARK    6  A    between atoms: O_7  and  C_18 
REMARK    7  A    between atoms: O_8  and  C_19 
REMARK    8  A    between atoms: O_9  and  C_21 
REMARK    9  A    between atoms: O_10  and  C_22 
REMARK   10  A    between atoms: O_11  and  C_23 
REMARK   11  A    between atoms: C_15  and  C_22 
REMARK   12  A    between atoms: C_20  and  C_23 
ROOT
HETATM    1  O   UNL     1       7.837  -0.346 -13.473  1.00  0.00    -0.326 OA
ENDROOT
BRANCH   1   2
HETATM    2  C   UNL     1       7.935   0.528 -14.616  1.00  0.00     0.177 C 
HETATM    3  C   UNL     1       9.331   1.185 -14.672  1.00  0.00     0.172 C 
HETATM    4  C   UNL     1       9.585   1.869 -16.020  1.00  0.00     0.197 C 
HETATM    5  C   UNL     1       9.222   0.934 -17.184  1.00  0.00     0.263 C 
HETATM    6  O   UNL     1       7.891   0.463 -17.073  1.00  0.00    -0.327 OA
HETATM    7  C   UNL     1       7.707  -0.318 -15.880  1.00  0.00     0.177 C 
BRANCH   3   8
HETATM    8  O   UNL     1       9.448   2.169 -13.628  1.00  0.00    -0.380 OA
HETATM    9  H   UNL     1       9.513   3.030 -14.088  1.00  0.00     0.211 HD
ENDBRANCH   3   8
BRANCH   4  10
HETATM   10  O   UNL     1      10.969   2.245 -16.133  1.00  0.00    -0.378 OA
HETATM   11  H   UNL     1      11.378   1.556 -16.691  1.00  0.00     0.211 HD
ENDBRANCH   4  10
BRANCH   5  12
HETATM   12  O   UNL     1       9.329   1.673 -18.394  1.00  0.00    -0.359 OA
HETATM   13  H   UNL     1       8.611   2.326 -18.360  1.00  0.00     0.213 HD
ENDBRANCH   5  12
BRANCH   7  14
HETATM   14  C   UNL     1       6.280  -0.877 -15.922  1.00  0.00     0.170 C 
BRANCH  14  15
HETATM   15  O   UNL     1       6.195  -2.036 -15.094  1.00  0.00    -0.380 OA
HETATM   16  H   UNL     1       7.116  -2.320 -14.941  1.00  0.00     0.211 HD
ENDBRANCH  14  15
ENDBRANCH   7  14
ENDBRANCH   1   2
BRANCH   1  17
HETATM   17  C   UNL     1       6.872   0.075 -12.500  1.00  0.00     0.266 C 
HETATM   18  O   UNL     1       7.362   1.218 -11.808  1.00  0.00    -0.326 OA
HETATM   19  C   UNL     1       6.398   1.728 -10.857  1.00  0.00     0.176 C 
HETATM   20  C   UNL     1       6.207   0.689  -9.742  1.00  0.00     0.170 C 
HETATM   21  C   UNL     1       5.730  -0.633 -10.376  1.00  0.00     0.172 C 
HETATM   22  C   UNL     1       6.659  -1.086 -11.509  1.00  0.00     0.197 C 
BRANCH  19  23
HETATM   23  C   UNL     1       6.934   3.064 -10.338  1.00  0.00     0.170 C 
BRANCH  23  24
HETATM   24  O   UNL     1       7.897   3.578 -11.262  1.00  0.00    -0.380 OA
HETATM   25  H   UNL     1       8.780   3.286 -10.955  1.00  0.00     0.211 HD
ENDBRANCH  23  24
ENDBRANCH  19  23
BRANCH  20  26
HETATM   26  O   UNL     1       7.438   0.515  -9.027  1.00  0.00    -0.380 OA
HETATM   27  H   UNL     1       7.966   1.327  -9.103  1.00  0.00     0.211 HD
ENDBRANCH  20  26
BRANCH  21  28
HETATM   28  O   UNL     1       5.623  -1.669  -9.397  1.00  0.00    -0.380 OA
HETATM   29  H   UNL     1       4.716  -2.024  -9.480  1.00  0.00     0.211 HD
ENDBRANCH  21  28
BRANCH  22  30
HETATM   30  O   UNL     1       6.075  -2.225 -12.160  1.00  0.00    -0.378 OA
HETATM   31  H   UNL     1       6.613  -2.995 -11.892  1.00  0.00     0.211 HD
ENDBRANCH  22  30
ENDBRANCH   1  17
TORSDOF 12
ENDMDL
MODEL 12
REMARK VINA RESULT:    -4.983     18.864     21.588
REMARK INTER + INTRA:          -8.429
REMARK INTER:                  -6.884
REMARK INTRA:                  -1.545
REMARK UNBOUND:                -1.115
REMARK  12 active torsions:
REMARK  status: ('A' for Active; 'I' for Inactive)
REMARK    1  A    between atoms: O_1  and  C_12 
REMARK    2  A    between atoms: O_1  and  C_14 
REMARK    3  A    between atoms: O_4  and  C_13 
REMARK    4  A    between atoms: O_5  and  C_16 
REMARK    5  A    between atoms: O_6  and  C_17 
REMARK    6  A    between atoms: O_7  and  C_18 
REMARK    7  A    between atoms: O_8  and  C_19 
REMARK    8  A    between atoms: O_9  and  C_21 
REMARK    9  A    between atoms: O_10  and  C_22 
REMARK   10  A    between atoms: O_11  and  C_23 
REMARK   11  A    between atoms: C_15  and  C_22 
REMARK   12  A    between atoms: C_20  and  C_23 
ROOT
HETATM    1  O   UNL     1       8.977 -17.211  -6.296  1.00  0.00    -0.326 OA
ENDROOT
BRANCH   1   2
HETATM    2  C   UNL     1       9.535 -16.202  -5.429  1.00  0.00     0.177 C 
HETATM    3  C   UNL     1      10.065 -16.844  -4.128  1.00  0.00     0.172 C 
HETATM    4  C   UNL     1      10.936 -15.870  -3.326  1.00  0.00     0.197 C 
HETATM    5  C   UNL     1      11.978 -15.197  -4.230  1.00  0.00     0.263 C 
HETATM    6  O   UNL     1      11.368 -14.567  -5.344  1.00  0.00    -0.327 OA
HETATM    7  C   UNL     1      10.691 -15.519  -6.180  1.00  0.00     0.177 C 
BRANCH   3   8
HETATM    8  O   UNL     1       8.959 -17.259  -3.305  1.00  0.00    -0.380 OA
HETATM    9  H   UNL     1       8.195 -16.728  -3.609  1.00  0.00     0.211 HD
ENDBRANCH   3   8
BRANCH   4  10
HETATM   10  O   UNL     1      11.612 -16.567  -2.265  1.00  0.00    -0.378 OA
HETATM   11  H   UNL     1      12.513 -16.192  -2.245  1.00  0.00     0.211 HD
ENDBRANCH   4  10
BRANCH   5  12
HETATM   12  O   UNL     1      12.645 -14.198  -3.469  1.00  0.00    -0.359 OA
HETATM   13  H   UNL     1      12.049 -14.000  -2.728  1.00  0.00     0.213 HD
ENDBRANCH   5  12
BRANCH   7  14
HETATM   14  C   UNL     1      10.178 -14.756  -7.407  1.00  0.00     0.170 C 
BRANCH  14  15
HETATM   15  O   UNL     1      10.082 -15.646  -8.518  1.00  0.00    -0.380 OA
HETATM   16  H   UNL     1      10.889 -16.194  -8.490  1.00  0.00     0.211 HD
ENDBRANCH  14  15
ENDBRANCH   7  14
ENDBRANCH   1   2
BRANCH   1  17
HETATM   17  C   UNL     1       7.549 -17.151  -6.413  1.00  0.00     0.266 C 
HETATM   18  O   UNL     1       6.952 -17.793  -5.293  1.00  0.00    -0.326 OA
HETATM   19  C   UNL     1       5.509 -17.704  -5.325  1.00  0.00     0.176 C 
HETATM   20  C   UNL     1       4.991 -18.517  -6.521  1.00  0.00     0.170 C 
HETATM   21  C   UNL     1       5.621 -17.953  -7.810  1.00  0.00     0.172 C 
HETATM   22  C   UNL     1       7.149 -17.881  -7.710  1.00  0.00     0.197 C 
BRANCH  19  23
HETATM   23  C   UNL     1       4.990 -18.227  -3.984  1.00  0.00     0.170 C 
BRANCH  23  24
HETATM   24  O   UNL     1       6.074 -18.300  -3.054  1.00  0.00    -0.380 OA
HETATM   25  H   UNL     1       6.899 -18.135  -3.556  1.00  0.00     0.211 HD
ENDBRANCH  23  24
ENDBRANCH  19  23
BRANCH  20  26
HETATM   26  O   UNL     1       5.314 -19.902  -6.341  1.00  0.00    -0.380 OA
HETATM   27  H   UNL     1       6.243 -20.045  -6.588  1.00  0.00     0.211 HD
ENDBRANCH  20  26
BRANCH  21  28
HETATM   28  O   UNL     1       5.248 -18.728  -8.952  1.00  0.00    -0.380 OA
HETATM   29  H   UNL     1       4.700 -19.462  -8.611  1.00  0.00     0.211 HD
ENDBRANCH  21  28
BRANCH  22  30
HETATM   30  O   UNL     1       7.658 -17.202  -8.868  1.00  0.00    -0.378 OA
HETATM   31  H   UNL     1       8.567 -16.924  -8.642  1.00  0.00     0.211 HD
ENDBRANCH  22  30
ENDBRANCH   1  17
TORSDOF 12
ENDMDL
MODEL 13
REMARK VINA RESULT:    -4.965     30.935     33.365
REMARK INTER + INTRA:          -8.403
REMARK INTER:                  -6.840
REMARK INTRA:                  -1.562
REMARK UNBOUND:                -1.115
REMARK  12 active torsions:
REMARK  status: ('A' for Active; 'I' for Inactive)
REMARK    1  A    between atoms: O_1  and  C_12 
REMARK    2  A    between atoms: O_1  and  C_14 
REMARK    3  A    between atoms: O_4  and  C_13 
REMARK    4  A    between atoms: O_5  and  C_16 
REMARK    5  A    between atoms: O_6  and  C_17 
REMARK    6  A    between atoms: O_7  and  C_18 
REMARK    7  A    between atoms: O_8  and  C_19 
REMARK    8  A    between atoms: O_9  and  C_21 
REMARK    9  A    between atoms: O_10  and  C_22 
REMARK   10  A    between atoms: O_11  and  C_23 
REMARK   11  A    between atoms: C_15  and  C_22 
REMARK   12  A    between atoms: C_20  and  C_23 
ROOT
HETATM    1  O   UNL     1      -3.843 -17.990   9.375  1.00  0.00    -0.326 OA
ENDROOT
BRANCH   1   2
HETATM    2  C   UNL     1      -3.742 -18.897   8.259  1.00  0.00     0.177 C 
HETATM    3  C   UNL     1      -2.261 -19.143   7.898  1.00  0.00     0.172 C 
HETATM    4  C   UNL     1      -2.098 -20.326   6.935  1.00  0.00     0.197 C 
HETATM    5  C   UNL     1      -2.893 -21.544   7.427  1.00  0.00     0.263 C 
HETATM    6  O   UNL     1      -4.256 -21.221   7.641  1.00  0.00    -0.327 OA
HETATM    7  C   UNL     1      -4.405 -20.225   8.666  1.00  0.00     0.177 C 
BRANCH   3   8
HETATM    8  O   UNL     1      -1.710 -17.966   7.279  1.00  0.00    -0.380 OA
HETATM    9  H   UNL     1      -2.436 -17.310   7.276  1.00  0.00     0.211 HD
ENDBRANCH   3   8
BRANCH   4  10
HETATM   10  O   UNL     1      -0.710 -20.684   6.821  1.00  0.00    -0.378 OA
HETATM   11  H   UNL     1      -0.681 -21.649   6.969  1.00  0.00     0.211 HD
ENDBRANCH   4  10
BRANCH   5  12
HETATM   12  O   UNL     1      -2.831 -22.548   6.421  1.00  0.00    -0.359 OA
HETATM   13  H   UNL     1      -1.974 -22.987   6.551  1.00  0.00     0.213 HD
ENDBRANCH   5  12
BRANCH   7  14
HETATM   14  C   UNL     1      -5.909 -20.042   8.901  1.00  0.00     0.170 C 
BRANCH  14  15
HETATM   15  O   UNL     1      -6.147 -19.754  10.279  1.00  0.00    -0.380 OA
HETATM   16  H   UNL     1      -6.042 -20.604  10.749  1.00  0.00     0.211 HD
ENDBRANCH  14  15
ENDBRANCH   7  14
ENDBRANCH   1   2
BRANCH   1  17
HETATM   17  C   UNL     1      -2.983 -18.322  10.473  1.00  0.00     0.266 C 
HETATM   18  O   UNL     1      -3.763 -18.805  11.560  1.00  0.00    -0.326 OA
HETATM   19  C   UNL     1      -2.939 -19.219  12.674  1.00  0.00     0.176 C 
HETATM   20  C   UNL     1      -2.240 -17.982  13.258  1.00  0.00     0.170 C 
HETATM   21  C   UNL     1      -1.399 -17.321  12.148  1.00  0.00     0.172 C 
HETATM   22  C   UNL     1      -2.236 -17.041  10.893  1.00  0.00     0.197 C 
BRANCH  19  23
HETATM   23  C   UNL     1      -3.855 -19.914  13.684  1.00  0.00     0.170 C 
BRANCH  23  24
HETATM   24  O   UNL     1      -5.174 -20.006  13.141  1.00  0.00    -0.380 OA
HETATM   25  H   UNL     1      -5.082 -20.195  12.184  1.00  0.00     0.211 HD
ENDBRANCH  23  24
ENDBRANCH  19  23
BRANCH  20  26
HETATM   26  O   UNL     1      -3.220 -17.076  13.784  1.00  0.00    -0.380 OA
HETATM   27  H   UNL     1      -3.046 -16.935  14.730  1.00  0.00     0.211 HD
ENDBRANCH  20  26
BRANCH  21  28
HETATM   28  O   UNL     1      -0.796 -16.108  12.606  1.00  0.00    -0.380 OA
HETATM   29  H   UNL     1      -0.735 -16.189  13.578  1.00  0.00     0.211 HD
ENDBRANCH  21  28
BRANCH  22  30
HETATM   30  O   UNL     1      -1.365 -16.580   9.849  1.00  0.00    -0.378 OA
HETATM   31  H   UNL     1      -0.499 -17.002  10.013  1.00  0.00     0.211 HD
ENDBRANCH  22  30
ENDBRANCH   1  17
TORSDOF 12
ENDMDL
MODEL 14
REMARK VINA RESULT:    -4.946      2.839      4.837
REMARK INTER + INTRA:          -8.375
REMARK INTER:                  -6.779
REMARK INTRA:                  -1.595
REMARK UNBOUND:                -1.115
REMARK  12 active torsions:
REMARK  status: ('A' for Active; 'I' for Inactive)
REMARK    1  A    between atoms: O_1  and  C_12 
REMARK    2  A    between atoms: O_1  and  C_14 
REMARK    3  A    between atoms: O_4  and  C_13 
REMARK    4  A    between atoms: O_5  and  C_16 
REMARK    5  A    between atoms: O_6  and  C_17 
REMARK    6  A    between atoms: O_7  and  C_18 
REMARK    7  A    between atoms: O_8  and  C_19 
REMARK    8  A    between atoms: O_9  and  C_21 
REMARK    9  A    between atoms: O_10  and  C_22 
REMARK   10  A    between atoms: O_11  and  C_23 
REMARK   11  A    between atoms: C_15  and  C_22 
REMARK   12  A    between atoms: C_20  and  C_23 
ROOT
HETATM    1  O   UNL     1       7.705   1.211 -14.308  1.00  0.00    -0.326 OA
ENDROOT
BRANCH   1   2
HETATM    2  C   UNL     1       8.754   0.221 -14.315  1.00  0.00     0.177 C 
HETATM    3  C   UNL     1      10.118   0.886 -14.601  1.00  0.00     0.172 C 
HETATM    4  C   UNL     1      11.287  -0.064 -14.313  1.00  0.00     0.197 C 
HETATM    5  C   UNL     1      11.125  -0.726 -12.937  1.00  0.00     0.263 C 
HETATM    6  O   UNL     1       9.872  -1.378 -12.820  1.00  0.00    -0.327 OA
HETATM    7  C   UNL     1       8.783  -0.447 -12.929  1.00  0.00     0.177 C 
BRANCH   3   8
HETATM    8  O   UNL     1      10.182   1.288 -15.982  1.00  0.00    -0.380 OA
HETATM    9  H   UNL     1      11.135   1.395 -16.177  1.00  0.00     0.211 HD
ENDBRANCH   3   8
BRANCH   4  10
HETATM   10  O   UNL     1      12.531   0.656 -14.345  1.00  0.00    -0.378 OA
HETATM   11  H   UNL     1      13.204  -0.005 -14.599  1.00  0.00     0.211 HD
ENDBRANCH   4  10
BRANCH   5  12
HETATM   12  O   UNL     1      12.147  -1.706 -12.794  1.00  0.00    -0.359 OA
HETATM   13  H   UNL     1      11.819  -2.488 -13.266  1.00  0.00     0.213 HD
ENDBRANCH   5  12
BRANCH   7  14
HETATM   14  C   UNL     1       7.492  -1.232 -12.667  1.00  0.00     0.170 C 
BRANCH  14  15
HETATM   15  O   UNL     1       6.604  -0.442 -11.876  1.00  0.00    -0.380 OA
HETATM   16  H   UNL     1       7.013  -0.389 -10.991  1.00  0.00     0.211 HD
ENDBRANCH  14  15
ENDBRANCH   7  14
ENDBRANCH   1   2
BRANCH   1  17
HETATM   17  C   UNL     1       7.954   2.316 -13.428  1.00  0.00     0.266 C 
HETATM   18  O   UNL     1       7.086   2.233 -12.303  1.00  0.00    -0.326 OA
HETATM   19  C   UNL     1       7.340   3.288 -11.347  1.00  0.00     0.176 C 
HETATM   20  C   UNL     1       6.969   4.634 -11.987  1.00  0.00     0.170 C 
HETATM   21  C   UNL     1       7.807   4.819 -13.268  1.00  0.00     0.172 C 
HETATM   22  C   UNL     1       7.677   3.615 -14.209  1.00  0.00     0.197 C 
BRANCH  19  23
HETATM   23  C   UNL     1       6.514   2.979 -10.097  1.00  0.00     0.170 C 
BRANCH  23  24
HETATM   24  O   UNL     1       5.451   2.087 -10.442  1.00  0.00    -0.380 OA
HETATM   25  H   UNL     1       4.873   2.556 -11.080  1.00  0.00     0.211 HD
ENDBRANCH  23  24
ENDBRANCH  19  23
BRANCH  20  26
HETATM   26  O   UNL     1       5.564   4.665 -12.270  1.00  0.00    -0.380 OA
HETATM   27  H   UNL     1       5.394   4.168 -13.088  1.00  0.00     0.211 HD
ENDBRANCH  20  26
BRANCH  21  28
HETATM   28  O   UNL     1       7.439   6.014 -13.961  1.00  0.00    -0.380 OA
HETATM   29  H   UNL     1       6.532   5.865 -14.292  1.00  0.00     0.211 HD
ENDBRANCH  21  28
BRANCH  22  30
HETATM   30  O   UNL     1       8.600   3.775 -15.297  1.00  0.00    -0.378 OA
HETATM   31  H   UNL     1       8.440   4.669 -15.659  1.00  0.00     0.211 HD
ENDBRANCH  22  30
ENDBRANCH   1  17
TORSDOF 12
ENDMDL
MODEL 15
REMARK VINA RESULT:    -4.866     17.643     20.471
REMARK INTER + INTRA:          -8.257
REMARK INTER:                  -6.763
REMARK INTRA:                  -1.494
REMARK UNBOUND:                -1.115
REMARK  12 active torsions:
REMARK  status: ('A' for Active; 'I' for Inactive)
REMARK    1  A    between atoms: O_1  and  C_12 
REMARK    2  A    between atoms: O_1  and  C_14 
REMARK    3  A    between atoms: O_4  and  C_13 
REMARK    4  A    between atoms: O_5  and  C_16 
REMARK    5  A    between atoms: O_6  and  C_17 
REMARK    6  A    between atoms: O_7  and  C_18 
REMARK    7  A    between atoms: O_8  and  C_19 
REMARK    8  A    between atoms: O_9  and  C_21 
REMARK    9  A    between atoms: O_10  and  C_22 
REMARK   10  A    between atoms: O_11  and  C_23 
REMARK   11  A    between atoms: C_15  and  C_22 
REMARK   12  A    between atoms: C_20  and  C_23 
ROOT
HETATM    1  O   UNL     1       9.319 -17.591  -6.035  1.00  0.00    -0.326 OA
ENDROOT
BRANCH   1   2
HETATM    2  C   UNL     1       7.950 -17.965  -6.295  1.00  0.00     0.177 C 
HETATM    3  C   UNL     1       7.121 -17.908  -4.994  1.00  0.00     0.172 C 
HETATM    4  C   UNL     1       5.616 -17.992  -5.272  1.00  0.00     0.197 C 
HETATM    5  C   UNL     1       5.211 -17.012  -6.384  1.00  0.00     0.263 C 
HETATM    6  O   UNL     1       5.978 -17.215  -7.557  1.00  0.00    -0.327 OA
HETATM    7  C   UNL     1       7.375 -16.972  -7.321  1.00  0.00     0.177 C 
BRANCH   3   8
HETATM    8  O   UNL     1       7.492 -19.001  -4.134  1.00  0.00    -0.380 OA
HETATM    9  H   UNL     1       8.444 -18.875  -3.949  1.00  0.00     0.211 HD
ENDBRANCH   3   8
BRANCH   4  10
HETATM   10  O   UNL     1       4.872 -17.685  -4.080  1.00  0.00    -0.378 OA
HETATM   11  H   UNL     1       4.293 -16.938  -4.324  1.00  0.00     0.211 HD
ENDBRANCH   4  10
BRANCH   5  12
HETATM   12  O   UNL     1       3.845 -17.247  -6.704  1.00  0.00    -0.359 OA
HETATM   13  H   UNL     1       3.352 -16.544  -6.251  1.00  0.00     0.213 HD
ENDBRANCH   5  12
BRANCH   7  14
HETATM   14  C   UNL     1       8.089 -17.097  -8.672  1.00  0.00     0.170 C 
BRANCH  14  15
HETATM   15  O   UNL     1       9.106 -16.101  -8.770  1.00  0.00    -0.380 OA
HETATM   16  H   UNL     1       9.462 -15.996  -7.866  1.00  0.00     0.211 HD
ENDBRANCH  14  15
ENDBRANCH   7  14
ENDBRANCH   1   2
BRANCH   1  17
HETATM   17  C   UNL     1       9.462 -16.309  -5.408  1.00  0.00     0.266 C 
HETATM   18  O   UNL     1      10.080 -15.402  -6.314  1.00  0.00    -0.326 OA
HETATM   19  C   UNL     1      10.189 -14.073  -5.756  1.00  0.00     0.176 C 
HETATM   20  C   UNL     1      11.164 -14.113  -4.570  1.00  0.00     0.170 C 
HETATM   21  C   UNL     1      10.634 -15.121  -3.530  1.00  0.00     0.172 C 
HETATM   22  C   UNL     1      10.348 -16.489  -4.161  1.00  0.00     0.197 C 
BRANCH  19  23
HETATM   23  C   UNL     1      10.659 -13.145  -6.878  1.00  0.00     0.170 C 
BRANCH  23  24
HETATM   24  O   UNL     1      11.189 -13.930  -7.949  1.00  0.00    -0.380 OA
HETATM   25  H   UNL     1      11.642 -14.701  -7.549  1.00  0.00     0.211 HD
ENDBRANCH  23  24
ENDBRANCH  19  23
BRANCH  20  26
HETATM   26  O   UNL     1      12.473 -14.475  -5.032  1.00  0.00    -0.380 OA
HETATM   27  H   UNL     1      12.419 -14.730  -5.968  1.00  0.00     0.211 HD
ENDBRANCH  20  26
BRANCH  21  28
HETATM   28  O   UNL     1      11.548 -15.272  -2.441  1.00  0.00    -0.380 OA
HETATM   29  H   UNL     1      11.031 -15.657  -1.707  1.00  0.00     0.211 HD
ENDBRANCH  21  28
BRANCH  22  30
HETATM   30  O   UNL     1       9.709 -17.325  -3.184  1.00  0.00    -0.378 OA
HETATM   31  H   UNL     1      10.279 -18.112  -3.086  1.00  0.00     0.211 HD
ENDBRANCH  22  30
ENDBRANCH   1  17
TORSDOF 12
ENDMDL
MODEL 16
REMARK VINA RESULT:    -4.833      2.670      6.196
REMARK INTER + INTRA:          -8.209
REMARK INTER:                  -6.933
REMARK INTRA:                  -1.276
REMARK UNBOUND:                -1.115
REMARK  12 active torsions:
REMARK  status: ('A' for Active; 'I' for Inactive)
REMARK    1  A    between atoms: O_1  and  C_12 
REMARK    2  A    between atoms: O_1  and  C_14 
REMARK    3  A    between atoms: O_4  and  C_13 
REMARK    4  A    between atoms: O_5  and  C_16 
REMARK    5  A    between atoms: O_6  and  C_17 
REMARK    6  A    between atoms: O_7  and  C_18 
REMARK    7  A    between atoms: O_8  and  C_19 
REMARK    8  A    between atoms: O_9  and  C_21 
REMARK    9  A    between atoms: O_10  and  C_22 
REMARK   10  A    between atoms: O_11  and  C_23 
REMARK   11  A    between atoms: C_15  and  C_22 
REMARK   12  A    between atoms: C_20  and  C_23 
ROOT
HETATM    1  O   UNL     1       8.057  -0.844 -13.442  1.00  0.00    -0.326 OA
ENDROOT
BRANCH   1   2
HETATM    2  C   UNL     1       7.763  -0.765 -14.852  1.00  0.00     0.177 C 
HETATM    3  C   UNL     1       6.237  -0.794 -15.085  1.00  0.00     0.172 C 
HETATM    4  C   UNL     1       5.873  -0.404 -16.523  1.00  0.00     0.197 C 
HETATM    5  C   UNL     1       6.605   0.880 -16.942  1.00  0.00     0.263 C 
HETATM    6  O   UNL     1       8.005   0.759 -16.765  1.00  0.00    -0.327 OA
HETATM    7  C   UNL     1       8.345   0.556 -15.384  1.00  0.00     0.177 C 
BRANCH   3   8
HETATM    8  O   UNL     1       5.730  -2.116 -14.825  1.00  0.00    -0.380 OA
HETATM    9  H   UNL     1       5.194  -2.033 -14.011  1.00  0.00     0.211 HD
ENDBRANCH   3   8
BRANCH   4  10
HETATM   10  O   UNL     1       4.455  -0.196 -16.637  1.00  0.00    -0.378 OA
HETATM   11  H   UNL     1       4.137  -0.083 -15.720  1.00  0.00     0.211 HD
ENDBRANCH   4  10
BRANCH   5  12
HETATM   12  O   UNL     1       6.352   1.102 -18.324  1.00  0.00    -0.359 OA
HETATM   13  H   UNL     1       5.450   1.458 -18.365  1.00  0.00     0.213 HD
ENDBRANCH   5  12
BRANCH   7  14
HETATM   14  C   UNL     1       9.876   0.562 -15.291  1.00  0.00     0.170 C 
BRANCH  14  15
HETATM   15  O   UNL     1      10.348  -0.766 -15.067  1.00  0.00    -0.380 OA
HETATM   16  H   UNL     1       9.692  -1.354 -15.490  1.00  0.00     0.211 HD
ENDBRANCH  14  15
ENDBRANCH   7  14
ENDBRANCH   1   2
BRANCH   1  17
HETATM   17  C   UNL     1       7.120  -0.142 -12.613  1.00  0.00     0.266 C 
HETATM   18  O   UNL     1       7.716   1.056 -12.129  1.00  0.00    -0.326 OA
HETATM   19  C   UNL     1       6.792   1.839 -11.340  1.00  0.00     0.176 C 
HETATM   20  C   UNL     1       6.457   1.063 -10.058  1.00  0.00     0.170 C 
HETATM   21  C   UNL     1       5.852  -0.300 -10.450  1.00  0.00     0.172 C 
HETATM   22  C   UNL     1       6.754  -1.060 -11.431  1.00  0.00     0.197 C 
BRANCH  19  23
HETATM   23  C   UNL     1       7.460   3.187 -11.060  1.00  0.00     0.170 C 
BRANCH  23  24
HETATM   24  O   UNL     1       6.836   3.796  -9.927  1.00  0.00    -0.380 OA
HETATM   25  H   UNL     1       7.118   3.294  -9.134  1.00  0.00     0.211 HD
ENDBRANCH  23  24
ENDBRANCH  19  23
BRANCH  20  26
HETATM   26  O   UNL     1       7.642   0.903  -9.265  1.00  0.00    -0.380 OA
HETATM   27  H   UNL     1       8.421   1.018  -9.834  1.00  0.00     0.211 HD
ENDBRANCH  20  26
BRANCH  21  28
HETATM   28  O   UNL     1       5.604  -1.109  -9.297  1.00  0.00    -0.380 OA
HETATM   29  H   UNL     1       6.396  -1.671  -9.188  1.00  0.00     0.211 HD
ENDBRANCH  21  28
BRANCH  22  30
HETATM   30  O   UNL     1       6.063  -2.236 -11.879  1.00  0.00    -0.378 OA
HETATM   31  H   UNL     1       5.129  -1.974 -11.994  1.00  0.00     0.211 HD
ENDBRANCH  22  30
ENDBRANCH   1  17
TORSDOF 12
ENDMDL
MODEL 17
REMARK VINA RESULT:    -4.824      3.063      5.477
REMARK INTER + INTRA:          -8.195
REMARK INTER:                  -6.842
REMARK INTRA:                  -1.352
REMARK UNBOUND:                -1.115
REMARK  12 active torsions:
REMARK  status: ('A' for Active; 'I' for Inactive)
REMARK    1  A    between atoms: O_1  and  C_12 
REMARK    2  A    between atoms: O_1  and  C_14 
REMARK    3  A    between atoms: O_4  and  C_13 
REMARK    4  A    between atoms: O_5  and  C_16 
REMARK    5  A    between atoms: O_6  and  C_17 
REMARK    6  A    between atoms: O_7  and  C_18 
REMARK    7  A    between atoms: O_8  and  C_19 
REMARK    8  A    between atoms: O_9  and  C_21 
REMARK    9  A    between atoms: O_10  and  C_22 
REMARK   10  A    between atoms: O_11  and  C_23 
REMARK   11  A    between atoms: C_15  and  C_22 
REMARK   12  A    between atoms: C_20  and  C_23 
ROOT
HETATM    1  O   UNL     1       9.573   1.503 -13.091  1.00  0.00    -0.326 OA
ENDROOT
BRANCH   1   2
HETATM    2  C   UNL     1       8.217   1.764 -12.675  1.00  0.00     0.177 C 
HETATM    3  C   UNL     1       7.992   1.268 -11.231  1.00  0.00     0.172 C 
HETATM    4  C   UNL     1       6.679   1.798 -10.644  1.00  0.00     0.197 C 
HETATM    5  C   UNL     1       6.548   3.311 -10.875  1.00  0.00     0.263 C 
HETATM    6  O   UNL     1       6.685   3.639 -12.246  1.00  0.00    -0.327 OA
HETATM    7  C   UNL     1       7.985   3.284 -12.744  1.00  0.00     0.177 C 
BRANCH   3   8
HETATM    8  O   UNL     1       7.958  -0.171 -11.211  1.00  0.00    -0.380 OA
HETATM    9  H   UNL     1       7.268  -0.423 -11.857  1.00  0.00     0.211 HD
ENDBRANCH   3   8
BRANCH   4  10
HETATM   10  O   UNL     1       6.622   1.531  -9.232  1.00  0.00    -0.378 OA
HETATM   11  H   UNL     1       5.815   1.981  -8.917  1.00  0.00     0.211 HD
ENDBRANCH   4  10
BRANCH   5  12
HETATM   12  O   UNL     1       5.250   3.712 -10.452  1.00  0.00    -0.359 OA
HETATM   13  H   UNL     1       4.655   3.455 -11.175  1.00  0.00     0.213 HD
ENDBRANCH   5  12
BRANCH   7  14
HETATM   14  C   UNL     1       8.068   3.791 -14.189  1.00  0.00     0.170 C 
BRANCH  14  15
HETATM   15  O   UNL     1       9.428   4.063 -14.524  1.00  0.00    -0.380 OA
HETATM   16  H   UNL     1       9.463   5.016 -14.736  1.00  0.00     0.211 HD
ENDBRANCH  14  15
ENDBRANCH   7  14
ENDBRANCH   1   2
BRANCH   1  17
HETATM   17  C   UNL     1       9.690   0.464 -14.072  1.00  0.00     0.266 C 
HETATM   18  O   UNL     1       8.677  -0.512 -13.854  1.00  0.00    -0.326 OA
HETATM   19  C   UNL     1       8.705  -1.552 -14.858  1.00  0.00     0.176 C 
HETATM   20  C   UNL     1      10.009  -2.350 -14.706  1.00  0.00     0.170 C 
HETATM   21  C   UNL     1      11.200  -1.383 -14.860  1.00  0.00     0.172 C 
HETATM   22  C   UNL     1      11.080  -0.181 -13.916  1.00  0.00     0.197 C 
BRANCH  19  23
HETATM   23  C   UNL     1       7.457  -2.414 -14.657  1.00  0.00     0.170 C 
BRANCH  23  24
HETATM   24  O   UNL     1       7.159  -2.495 -13.260  1.00  0.00    -0.380 OA
HETATM   25  H   UNL     1       7.351  -3.413 -12.975  1.00  0.00     0.211 HD
ENDBRANCH  23  24
ENDBRANCH  19  23
BRANCH  20  26
HETATM   26  O   UNL     1      10.028  -3.007 -13.431  1.00  0.00    -0.380 OA
HETATM   27  H   UNL     1       9.279  -3.624 -13.381  1.00  0.00     0.211 HD
ENDBRANCH  20  26
BRANCH  21  28
HETATM   28  O   UNL     1      12.443  -2.052 -14.636  1.00  0.00    -0.380 OA
HETATM   29  H   UNL     1      12.838  -2.188 -15.519  1.00  0.00     0.211 HD
ENDBRANCH  21  28
BRANCH  22  30
HETATM   30  O   UNL     1      12.126   0.755 -14.222  1.00  0.00    -0.378 OA
HETATM   31  H   UNL     1      12.589   0.397 -15.005  1.00  0.00     0.211 HD
ENDBRANCH  22  30
ENDBRANCH   1  17
TORSDOF 12
ENDMDL
MODEL 18
REMARK VINA RESULT:    -4.779      2.993      5.918
REMARK INTER + INTRA:          -8.129
REMARK INTER:                  -7.089
REMARK INTRA:                  -1.040
REMARK UNBOUND:                -1.115
REMARK  12 active torsions:
REMARK  status: ('A' for Active; 'I' for Inactive)
REMARK    1  A    between atoms: O_1  and  C_12 
REMARK    2  A    between atoms: O_1  and  C_14 
REMARK    3  A    between atoms: O_4  and  C_13 
REMARK    4  A    between atoms: O_5  and  C_16 
REMARK    5  A    between atoms: O_6  and  C_17 
REMARK    6  A    between atoms: O_7  and  C_18 
REMARK    7  A    between atoms: O_8  and  C_19 
REMARK    8  A    between atoms: O_9  and  C_21 
REMARK    9  A    between atoms: O_10  and  C_22 
REMARK   10  A    between atoms: O_11  and  C_23 
REMARK   11  A    between atoms: C_15  and  C_22 
REMARK   12  A    between atoms: C_20  and  C_23 
ROOT
HETATM    1  O   UNL     1       8.175  -1.173 -13.389  1.00  0.00    -0.326 OA
ENDROOT
BRANCH   1   2
HETATM    2  C   UNL     1       7.159  -0.416 -12.701  1.00  0.00     0.177 C 
HETATM    3  C   UNL     1       6.636  -1.204 -11.480  1.00  0.00     0.172 C 
HETATM    4  C   UNL     1       5.792  -0.323 -10.551  1.00  0.00     0.197 C 
HETATM    5  C   UNL     1       6.510   1.001 -10.254  1.00  0.00     0.263 C 
HETATM    6  O   UNL     1       6.865   1.678 -11.447  1.00  0.00    -0.327 OA
HETATM    7  C   UNL     1       7.788   0.908 -12.234  1.00  0.00     0.177 C 
BRANCH   3   8
HETATM    8  O   UNL     1       5.829  -2.310 -11.924  1.00  0.00    -0.380 OA
HETATM    9  H   UNL     1       4.941  -1.933 -12.089  1.00  0.00     0.211 HD
ENDBRANCH   3   8
BRANCH   4  10
HETATM   10  O   UNL     1       5.537  -1.009  -9.313  1.00  0.00    -0.378 OA
HETATM   11  H   UNL     1       4.670  -1.443  -9.434  1.00  0.00     0.211 HD
ENDBRANCH   4  10
BRANCH   5  12
HETATM   12  O   UNL     1       5.618   1.834  -9.523  1.00  0.00    -0.359 OA
HETATM   13  H   UNL     1       6.141   2.613  -9.274  1.00  0.00     0.213 HD
ENDBRANCH   5  12
BRANCH   7  14
HETATM   14  C   UNL     1       8.197   1.777 -13.429  1.00  0.00     0.170 C 
BRANCH  14  15
HETATM   15  O   UNL     1       9.566   1.535 -13.752  1.00  0.00    -0.380 OA
HETATM   16  H   UNL     1      10.061   2.297 -13.393  1.00  0.00     0.211 HD
ENDBRANCH  14  15
ENDBRANCH   7  14
ENDBRANCH   1   2
BRANCH   1  17
HETATM   17  C   UNL     1       7.806  -1.569 -14.717  1.00  0.00     0.266 C 
HETATM   18  O   UNL     1       6.730  -0.757 -15.173  1.00  0.00    -0.326 OA
HETATM   19  C   UNL     1       6.359  -1.069 -16.536  1.00  0.00     0.176 C 
HETATM   20  C   UNL     1       5.777  -2.490 -16.576  1.00  0.00     0.170 C 
HETATM   21  C   UNL     1       6.838  -3.473 -16.041  1.00  0.00     0.172 C 
HETATM   22  C   UNL     1       7.364  -3.044 -14.665  1.00  0.00     0.197 C 
BRANCH  19  23
HETATM   23  C   UNL     1       5.357  -0.006 -16.989  1.00  0.00     0.170 C 
BRANCH  23  24
HETATM   24  O   UNL     1       4.376  -0.611 -17.836  1.00  0.00    -0.380 OA
HETATM   25  H   UNL     1       4.525  -0.272 -18.743  1.00  0.00     0.211 HD
ENDBRANCH  23  24
ENDBRANCH  19  23
BRANCH  20  26
HETATM   26  O   UNL     1       4.573  -2.543 -15.799  1.00  0.00    -0.380 OA
HETATM   27  H   UNL     1       4.800  -2.468 -14.857  1.00  0.00     0.211 HD
ENDBRANCH  20  26
BRANCH  21  28
HETATM   28  O   UNL     1       6.322  -4.804 -15.967  1.00  0.00    -0.380 OA
HETATM   29  H   UNL     1       7.019  -5.339 -15.539  1.00  0.00     0.211 HD
ENDBRANCH  21  28
BRANCH  22  30
HETATM   30  O   UNL     1       8.456  -3.902 -14.299  1.00  0.00    -0.378 OA
HETATM   31  H   UNL     1       8.905  -3.465 -13.550  1.00  0.00     0.211 HD
ENDBRANCH  22  30
ENDBRANCH   1  17
TORSDOF 12
ENDMDL
MODEL 19
REMARK VINA RESULT:    -4.660     27.818     28.682
REMARK INTER + INTRA:          -7.954
REMARK INTER:                  -6.503
REMARK INTRA:                  -1.451
REMARK UNBOUND:                -1.115
REMARK  12 active torsions:
REMARK  status: ('A' for Active; 'I' for Inactive)
REMARK    1  A    between atoms: O_1  and  C_12 
REMARK    2  A    between atoms: O_1  and  C_14 
REMARK    3  A    between atoms: O_4  and  C_13 
REMARK    4  A    between atoms: O_5  and  C_16 
REMARK    5  A    between atoms: O_6  and  C_17 
REMARK    6  A    between atoms: O_7  and  C_18 
REMARK    7  A    between atoms: O_8  and  C_19 
REMARK    8  A    between atoms: O_9  and  C_21 
REMARK    9  A    between atoms: O_10  and  C_22 
REMARK   10  A    between atoms: O_11  and  C_23 
REMARK   11  A    between atoms: C_15  and  C_22 
REMARK   12  A    between atoms: C_20  and  C_23 
ROOT
HETATM    1  O   UNL     1       8.429   2.249  16.109  1.00  0.00    -0.326 OA
ENDROOT
BRANCH   1   2
HETATM    2  C   UNL     1       7.303   2.613  15.285  1.00  0.00     0.177 C 
HETATM    3  C   UNL     1       6.058   1.790  15.682  1.00  0.00     0.172 C 
HETATM    4  C   UNL     1       4.778   2.356  15.056  1.00  0.00     0.197 C 
HETATM    5  C   UNL     1       4.690   3.874  15.268  1.00  0.00     0.263 C 
HETATM    6  O   UNL     1       5.849   4.532  14.788  1.00  0.00    -0.327 OA
HETATM    7  C   UNL     1       7.025   4.111  15.498  1.00  0.00     0.177 C 
BRANCH   3   8
HETATM    8  O   UNL     1       6.218   0.426  15.251  1.00  0.00    -0.380 OA
HETATM    9  H   UNL     1       5.599   0.317  14.501  1.00  0.00     0.211 HD
ENDBRANCH   3   8
BRANCH   4  10
HETATM   10  O   UNL     1       3.622   1.731  15.640  1.00  0.00    -0.378 OA
HETATM   11  H   UNL     1       2.871   2.001  15.077  1.00  0.00     0.211 HD
ENDBRANCH   4  10
BRANCH   5  12
HETATM   12  O   UNL     1       3.572   4.359  14.536  1.00  0.00    -0.359 OA
HETATM   13  H   UNL     1       3.823   5.251  14.245  1.00  0.00     0.213 HD
ENDBRANCH   5  12
BRANCH   7  14
HETATM   14  C   UNL     1       8.190   4.967  14.988  1.00  0.00     0.170 C 
BRANCH  14  15
HETATM   15  O   UNL     1       9.217   5.019  15.978  1.00  0.00    -0.380 OA
HETATM   16  H   UNL     1      10.060   5.034  15.486  1.00  0.00     0.211 HD
ENDBRANCH  14  15
ENDBRANCH   7  14
ENDBRANCH   1   2
BRANCH   1  17
HETATM   17  C   UNL     1       9.327   1.318  15.489  1.00  0.00     0.266 C 
HETATM   18  O   UNL     1       8.963  -0.009  15.852  1.00  0.00    -0.326 OA
HETATM   19  C   UNL     1       9.795  -0.994  15.200  1.00  0.00     0.176 C 
HETATM   20  C   UNL     1      11.230  -0.859  15.731  1.00  0.00     0.170 C 
HETATM   21  C   UNL     1      11.726   0.574  15.451  1.00  0.00     0.172 C 
HETATM   22  C   UNL     1      10.750   1.627  15.990  1.00  0.00     0.197 C 
BRANCH  19  23
HETATM   23  C   UNL     1       9.185  -2.368  15.487  1.00  0.00     0.170 C 
BRANCH  23  24
HETATM   24  O   UNL     1       7.760  -2.251  15.535  1.00  0.00    -0.380 OA
HETATM   25  H   UNL     1       7.549  -1.520  16.153  1.00  0.00     0.211 HD
ENDBRANCH  23  24
ENDBRANCH  19  23
BRANCH  20  26
HETATM   26  O   UNL     1      11.258  -1.159  17.133  1.00  0.00    -0.380 OA
HETATM   27  H   UNL     1      10.355  -1.099  17.487  1.00  0.00     0.211 HD
ENDBRANCH  20  26
BRANCH  21  28
HETATM   28  O   UNL     1      13.026   0.791  16.006  1.00  0.00    -0.380 OA
HETATM   29  H   UNL     1      13.641   0.813  15.248  1.00  0.00     0.211 HD
ENDBRANCH  21  28
BRANCH  22  30
HETATM   30  O   UNL     1      11.185   2.925  15.557  1.00  0.00    -0.378 OA
HETATM   31  H   UNL     1      10.489   3.551  15.837  1.00  0.00     0.211 HD
ENDBRANCH  22  30
ENDBRANCH   1  17
TORSDOF 12
ENDMDL
MODEL 20
REMARK VINA RESULT:    -4.583     21.253     24.206
REMARK INTER + INTRA:          -7.841
REMARK INTER:                  -6.369
REMARK INTRA:                  -1.472
REMARK UNBOUND:                -1.115
REMARK  12 active torsions:
REMARK  status: ('A' for Active; 'I' for Inactive)
REMARK    1  A    between atoms: O_1  and  C_12 
REMARK    2  A    between atoms: O_1  and  C_14 
REMARK    3  A    between atoms: O_4  and  C_13 
REMARK    4  A    between atoms: O_5  and  C_16 
REMARK    5  A    between atoms: O_6  and  C_17 
REMARK    6  A    between atoms: O_7  and  C_18 
REMARK    7  A    between atoms: O_8  and  C_19 
REMARK    8  A    between atoms: O_9  and  C_21 
REMARK    9  A    between atoms: O_10  and  C_22 
REMARK   10  A    between atoms: O_11  and  C_23 
REMARK   11  A    between atoms: C_15  and  C_22 
REMARK   12  A    between atoms: C_20  and  C_23 
ROOT
HETATM    1  O   UNL     1      11.730  20.079 -28.681  1.00  0.00    -0.326 OA
ENDROOT
BRANCH   1   2
HETATM    2  C   UNL     1      10.503  20.264 -29.417  1.00  0.00     0.177 C 
HETATM    3  C   UNL     1       9.378  19.397 -28.811  1.00  0.00     0.172 C 
HETATM    4  C   UNL     1       7.999  19.791 -29.355  1.00  0.00     0.197 C 
HETATM    5  C   UNL     1       7.800  21.312 -29.289  1.00  0.00     0.263 C 
HETATM    6  O   UNL     1       8.847  22.000 -29.952  1.00  0.00    -0.327 OA
HETATM    7  C   UNL     1      10.117  21.751 -29.328  1.00  0.00     0.177 C 
BRANCH   3   8
HETATM    8  O   UNL     1       9.614  18.010 -29.118  1.00  0.00    -0.380 OA
HETATM    9  H   UNL     1       9.739  17.571 -28.252  1.00  0.00     0.211 HD
ENDBRANCH   3   8
BRANCH   4  10
HETATM   10  O   UNL     1       6.963  19.146 -28.594  1.00  0.00    -0.378 OA
HETATM   11  H   UNL     1       7.413  18.438 -28.095  1.00  0.00     0.211 HD
ENDBRANCH   4  10
BRANCH   5  12
HETATM   12  O   UNL     1       6.579  21.627 -29.947  1.00  0.00    -0.359 OA
HETATM   13  H   UNL     1       6.387  20.861 -30.511  1.00  0.00     0.213 HD
ENDBRANCH   5  12
BRANCH   7  14
HETATM   14  C   UNL     1      11.150  22.633 -30.040  1.00  0.00     0.170 C 
BRANCH  14  15
HETATM   15  O   UNL     1      12.056  23.178 -29.082  1.00  0.00    -0.380 OA
HETATM   16  H   UNL     1      12.826  22.578 -29.074  1.00  0.00     0.211 HD
ENDBRANCH  14  15
ENDBRANCH   7  14
ENDBRANCH   1   2
BRANCH   1  17
HETATM   17  C   UNL     1      11.576  20.177 -27.259  1.00  0.00     0.266 C 
HETATM   18  O   UNL     1      12.064  21.438 -26.814  1.00  0.00    -0.326 OA
HETATM   19  C   UNL     1      11.871  21.619 -25.392  1.00  0.00     0.176 C 
HETATM   20  C   UNL     1      12.752  20.609 -24.642  1.00  0.00     0.170 C 
HETATM   21  C   UNL     1      12.360  19.186 -25.088  1.00  0.00     0.172 C 
HETATM   22  C   UNL     1      12.393  19.041 -26.615  1.00  0.00     0.197 C 
BRANCH  19  23
HETATM   23  C   UNL     1      12.226  23.071 -25.066  1.00  0.00     0.170 C 
BRANCH  23  24
HETATM   24  O   UNL     1      12.837  23.129 -23.775  1.00  0.00    -0.380 OA
HETATM   25  H   UNL     1      13.798  23.266 -23.913  1.00  0.00     0.211 HD
ENDBRANCH  23  24
ENDBRANCH  19  23
BRANCH  20  26
HETATM   26  O   UNL     1      14.135  20.880 -24.908  1.00  0.00    -0.380 OA
HETATM   27  H   UNL     1      14.293  21.835 -24.818  1.00  0.00     0.211 HD
ENDBRANCH  20  26
BRANCH  21  28
HETATM   28  O   UNL     1      13.210  18.203 -24.492  1.00  0.00    -0.380 OA
HETATM   29  H   UNL     1      12.632  17.655 -23.926  1.00  0.00     0.211 HD
ENDBRANCH  21  28
BRANCH  22  30
HETATM   30  O   UNL     1      11.865  17.754 -26.969  1.00  0.00    -0.378 OA
HETATM   31  H   UNL     1      12.572  17.299 -27.466  1.00  0.00     0.211 HD
ENDBRANCH  22  30
ENDBRANCH   1  17
TORSDOF 12
ENDMDL
