MODEL 1
REMARK VINA RESULT:    -5.141      0.000      0.000
REMARK INTER + INTRA:          -6.723
REMARK INTER:                  -6.329
REMARK INTRA:                  -0.394
REMARK UNBOUND:                -0.380
REMARK  6 active torsions:
REMARK  status: ('A' for Active; 'I' for Inactive)
REMARK    1  A    between atoms: S_1  and  C_15 
REMARK    2  A    between atoms: O_3  and  C_10 
REMARK    3  A    between atoms: O_4  and  C_12 
REMARK    4  A    between atoms: O_5  and  C_13 
REMARK    5  A    between atoms: O_6  and  C_14 
REMARK    6  A    between atoms: C_11  and  C_15 
ROOT
HETATM    1  O   UNL     1       1.259  13.897  -7.089  1.00  0.00    -0.328 OA
HETATM    2  C   UNL     1      -0.970  14.480  -6.222  1.00  0.00     0.168 C 
HETATM    3  C   UNL     1      -0.133  13.485  -7.063  1.00  0.00     0.166 C 
HETATM    4  C   UNL     1      -0.329  14.710  -4.841  1.00  0.00     0.172 C 
HETATM    5  C   UNL     1       1.152  15.072  -4.951  1.00  0.00     0.197 C 
HETATM    6  C   UNL     1       1.862  14.023  -5.816  1.00  0.00     0.263 C 
ENDROOT
BRANCH   3   7
HETATM    7  C   UNL     1      -0.533  13.424  -8.537  1.00  0.00     0.178 C 
BRANCH   7   8
HETATM    8  S   UNL     1      -1.456  11.989  -8.983  1.00  0.00     0.118 S 
HETATM    9  O   UNL     1      -1.948  12.324 -10.319  1.00  0.00    -0.594 OA
HETATM   10  O   UNL     1      -0.454  10.928  -8.952  1.00  0.00    -0.594 OA
HETATM   11  O   UNL     1      -2.481  11.906  -7.949  1.00  0.00    -0.594 OA
ENDBRANCH   7   8
ENDBRANCH   3   7
BRANCH   2  12
HETATM   12  O   UNL     1      -2.308  14.065  -5.927  1.00  0.00    -0.380 OA
HETATM   13  H   UNL     1      -2.937  14.621  -6.456  1.00  0.00     0.211 HD
ENDBRANCH   2  12
BRANCH   6  14
HETATM   14  O   UNL     1       1.877  12.765  -5.151  1.00  0.00    -0.359 OA
HETATM   15  H   UNL     1       1.502  12.144  -5.801  1.00  0.00     0.213 HD
ENDBRANCH   6  14
BRANCH   4  16
HETATM   16  O   UNL     1      -1.060  15.756  -4.172  1.00  0.00    -0.380 OA
HETATM   17  H   UNL     1      -0.383  16.180  -3.603  1.00  0.00     0.211 HD
ENDBRANCH   4  16
BRANCH   5  18
HETATM   18  O   UNL     1       1.771  15.123  -3.653  1.00  0.00    -0.378 OA
HETATM   19  H   UNL     1       2.170  16.013  -3.597  1.00  0.00     0.211 HD
ENDBRANCH   5  18
TORSDOF 6
ENDMDL
MODEL 2
REMARK VINA RESULT:    -4.751      2.282      2.988
REMARK INTER + INTRA:          -6.241
REMARK INTER:                  -5.757
REMARK INTRA:                  -0.484
REMARK UNBOUND:                -0.380
REMARK  6 active torsions:
REMARK  status: ('A' for Active; 'I' for Inactive)
REMARK    1  A    between atoms: S_1  and  C_15 
REMARK    2  A    between atoms: O_3  and  C_10 
REMARK    3  A    between atoms: O_4  and  C_12 
REMARK    4  A    between atoms: O_5  and  C_13 
REMARK    5  A    between atoms: O_6  and  C_14 
REMARK    6  A    between atoms: C_11  and  C_15 
ROOT
HETATM    1  O   UNL     1       1.242  16.540  -6.187  1.00  0.00    -0.328 OA
HETATM    2  C   UNL     1       0.526  14.189  -6.023  1.00  0.00     0.168 C 
HETATM    3  C   UNL     1       0.634  15.445  -6.923  1.00  0.00     0.166 C 
HETATM    4  C   UNL     1       1.879  13.865  -5.365  1.00  0.00     0.172 C 
HETATM    5  C   UNL     1       2.485  15.085  -4.671  1.00  0.00     0.197 C 
HETATM    6  C   UNL     1       2.523  16.257  -5.659  1.00  0.00     0.263 C 
ENDROOT
BRANCH   3   7
HETATM    7  C   UNL     1      -0.714  16.004  -7.379  1.00  0.00     0.178 C 
BRANCH   7   8
HETATM    8  S   UNL     1      -1.445  15.133  -8.728  1.00  0.00     0.118 S 
HETATM    9  O   UNL     1      -0.287  14.533  -9.389  1.00  0.00    -0.594 OA
HETATM   10  O   UNL     1      -2.330  14.180  -8.065  1.00  0.00    -0.594 OA
HETATM   11  O   UNL     1      -2.117  16.180  -9.488  1.00  0.00    -0.594 OA
ENDBRANCH   7   8
ENDBRANCH   3   7
BRANCH   2  12
HETATM   12  O   UNL     1       0.158  12.980  -6.693  1.00  0.00    -0.380 OA
HETATM   13  H   UNL     1      -0.832  12.915  -6.713  1.00  0.00     0.211 HD
ENDBRANCH   2  12
BRANCH   6  14
HETATM   14  O   UNL     1       3.441  15.985  -6.711  1.00  0.00    -0.359 OA
HETATM   15  H   UNL     1       3.432  15.015  -6.794  1.00  0.00     0.213 HD
ENDBRANCH   6  14
BRANCH   4  16
HETATM   16  O   UNL     1       1.680  12.792  -4.424  1.00  0.00    -0.380 OA
HETATM   17  H   UNL     1       2.548  12.337  -4.409  1.00  0.00     0.211 HD
ENDBRANCH   4  16
BRANCH   5  18
HETATM   18  O   UNL     1       3.819  14.808  -4.205  1.00  0.00    -0.378 OA
HETATM   19  H   UNL     1       4.121  15.639  -3.791  1.00  0.00     0.211 HD
ENDBRANCH   5  18
TORSDOF 6
ENDMDL
MODEL 3
REMARK VINA RESULT:    -4.542     32.516     33.749
REMARK INTER + INTRA:          -5.984
REMARK INTER:                  -5.516
REMARK INTRA:                  -0.468
REMARK UNBOUND:                -0.380
REMARK  6 active torsions:
REMARK  status: ('A' for Active; 'I' for Inactive)
REMARK    1  A    between atoms: S_1  and  C_15 
REMARK    2  A    between atoms: O_3  and  C_10 
REMARK    3  A    between atoms: O_4  and  C_12 
REMARK    4  A    between atoms: O_5  and  C_13 
REMARK    5  A    between atoms: O_6  and  C_14 
REMARK    6  A    between atoms: C_11  and  C_15 
ROOT
HETATM    1  O   UNL     1      -7.952 -18.776  -6.787  1.00  0.00    -0.328 OA
HETATM    2  C   UNL     1      -7.683 -19.867  -4.596  1.00  0.00     0.168 C 
HETATM    3  C   UNL     1      -7.089 -18.872  -5.623  1.00  0.00     0.166 C 
HETATM    4  C   UNL     1      -9.155 -19.532  -4.294  1.00  0.00     0.172 C 
HETATM    5  C   UNL     1      -9.981 -19.380  -5.571  1.00  0.00     0.197 C 
HETATM    6  C   UNL     1      -9.282 -18.386  -6.505  1.00  0.00     0.263 C 
ENDROOT
BRANCH   3   7
HETATM    7  C   UNL     1      -5.737 -19.299  -6.195  1.00  0.00     0.178 C 
BRANCH   7   8
HETATM    8  S   UNL     1      -4.351 -18.850  -5.201  1.00  0.00     0.118 S 
HETATM    9  O   UNL     1      -4.867 -17.730  -4.415  1.00  0.00    -0.594 OA
HETATM   10  O   UNL     1      -4.087 -20.063  -4.433  1.00  0.00    -0.594 OA
HETATM   11  O   UNL     1      -3.327 -18.499  -6.179  1.00  0.00    -0.594 OA
ENDBRANCH   7   8
ENDBRANCH   3   7
BRANCH   2  12
HETATM   12  O   UNL     1      -7.051 -19.878  -3.312  1.00  0.00    -0.380 OA
HETATM   13  H   UNL     1      -6.288 -20.512  -3.338  1.00  0.00     0.211 HD
ENDBRANCH   2  12
BRANCH   6  14
HETATM   14  O   UNL     1      -9.303 -17.080  -5.940  1.00  0.00    -0.359 OA
HETATM   15  H   UNL     1     -10.091 -16.662  -6.330  1.00  0.00     0.213 HD
ENDBRANCH   6  14
BRANCH   4  16
HETATM   16  O   UNL     1      -9.695 -20.576  -3.460  1.00  0.00    -0.380 OA
HETATM   17  H   UNL     1     -10.441 -20.139  -2.999  1.00  0.00     0.211 HD
ENDBRANCH   4  16
BRANCH   5  18
HETATM   18  O   UNL     1     -11.310 -18.909  -5.277  1.00  0.00    -0.378 OA
HETATM   19  H   UNL     1     -11.907 -19.544  -5.718  1.00  0.00     0.211 HD
ENDBRANCH   5  18
TORSDOF 6
ENDMDL
MODEL 4
REMARK VINA RESULT:    -4.505      3.711      6.652
REMARK INTER + INTRA:          -5.938
REMARK INTER:                  -5.461
REMARK INTRA:                  -0.477
REMARK UNBOUND:                -0.380
REMARK  6 active torsions:
REMARK  status: ('A' for Active; 'I' for Inactive)
REMARK    1  A    between atoms: S_1  and  C_15 
REMARK    2  A    between atoms: O_3  and  C_10 
REMARK    3  A    between atoms: O_4  and  C_12 
REMARK    4  A    between atoms: O_5  and  C_13 
REMARK    5  A    between atoms: O_6  and  C_14 
REMARK    6  A    between atoms: C_11  and  C_15 
ROOT
HETATM    1  O   UNL     1       1.544  15.290  -3.508  1.00  0.00    -0.328 OA
HETATM    2  C   UNL     1       2.872  16.233  -5.354  1.00  0.00     0.168 C 
HETATM    3  C   UNL     1       2.898  15.565  -3.958  1.00  0.00     0.166 C 
HETATM    4  C   UNL     1       2.007  15.422  -6.337  1.00  0.00     0.172 C 
HETATM    5  C   UNL     1       0.624  15.115  -5.762  1.00  0.00     0.197 C 
HETATM    6  C   UNL     1       0.787  14.474  -4.379  1.00  0.00     0.263 C 
ENDROOT
BRANCH   3   7
HETATM    7  C   UNL     1       3.486  16.447  -2.855  1.00  0.00     0.178 C 
BRANCH   7   8
HETATM    8  S   UNL     1       5.249  16.469  -2.804  1.00  0.00     0.118 S 
HETATM    9  O   UNL     1       5.580  17.641  -3.613  1.00  0.00    -0.594 OA
HETATM   10  O   UNL     1       5.536  16.610  -1.380  1.00  0.00    -0.594 OA
HETATM   11  O   UNL     1       5.625  15.187  -3.390  1.00  0.00    -0.594 OA
ENDBRANCH   7   8
ENDBRANCH   3   7
BRANCH   2  12
HETATM   12  O   UNL     1       4.141  16.345  -6.008  1.00  0.00    -0.380 OA
HETATM   13  H   UNL     1       4.010  16.204  -6.982  1.00  0.00     0.211 HD
ENDBRANCH   2  12
BRANCH   6  14
HETATM   14  O   UNL     1       1.388  13.190  -4.499  1.00  0.00    -0.359 OA
HETATM   15  H   UNL     1       1.754  13.178  -5.401  1.00  0.00     0.213 HD
ENDBRANCH   6  14
BRANCH   4  16
HETATM   16  O   UNL     1       1.894  16.170  -7.563  1.00  0.00    -0.380 OA
HETATM   17  H   UNL     1       2.335  17.020  -7.354  1.00  0.00     0.211 HD
ENDBRANCH   4  16
BRANCH   5  18
HETATM   18  O   UNL     1      -0.108  14.222  -6.622  1.00  0.00    -0.378 OA
HETATM   19  H   UNL     1      -0.280  13.430  -6.078  1.00  0.00     0.211 HD
ENDBRANCH   5  18
TORSDOF 6
ENDMDL
MODEL 5
REMARK VINA RESULT:    -4.477     16.599     17.896
REMARK INTER + INTRA:          -5.903
REMARK INTER:                  -5.459
REMARK INTRA:                  -0.445
REMARK UNBOUND:                -0.380
REMARK  6 active torsions:
REMARK  status: ('A' for Active; 'I' for Inactive)
REMARK    1  A    between atoms: S_1  and  C_15 
REMARK    2  A    between atoms: O_3  and  C_10 
REMARK    3  A    between atoms: O_4  and  C_12 
REMARK    4  A    between atoms: O_5  and  C_13 
REMARK    5  A    between atoms: O_6  and  C_14 
REMARK    6  A    between atoms: C_11  and  C_15 
ROOT
HETATM    1  O   UNL     1       6.407  -3.442 -11.518  1.00  0.00    -0.328 OA
HETATM    2  C   UNL     1       4.435  -2.035 -11.958  1.00  0.00     0.168 C 
HETATM    3  C   UNL     1       5.112  -3.043 -10.997  1.00  0.00     0.166 C 
HETATM    4  C   UNL     1       5.388  -0.876 -12.301  1.00  0.00     0.172 C 
HETATM    5  C   UNL     1       6.752  -1.377 -12.776  1.00  0.00     0.197 C 
HETATM    6  C   UNL     1       7.305  -2.374 -11.749  1.00  0.00     0.263 C 
ENDROOT
BRANCH   3   7
HETATM    7  C   UNL     1       4.351  -4.360 -10.837  1.00  0.00     0.178 C 
BRANCH   7   8
HETATM    8  S   UNL     1       3.078  -4.322  -9.618  1.00  0.00     0.118 S 
HETATM    9  O   UNL     1       3.209  -5.630  -8.975  1.00  0.00    -0.594 OA
HETATM   10  O   UNL     1       3.456  -3.190  -8.779  1.00  0.00    -0.594 OA
HETATM   11  O   UNL     1       1.860  -4.137 -10.399  1.00  0.00    -0.594 OA
ENDBRANCH   7   8
ENDBRANCH   3   7
BRANCH   2  12
HETATM   12  O   UNL     1       3.262  -1.391 -11.450  1.00  0.00    -0.380 OA
HETATM   13  H   UNL     1       3.537  -0.584 -10.943  1.00  0.00     0.211 HD
ENDBRANCH   2  12
BRANCH   6  14
HETATM   14  O   UNL     1       7.604  -1.708 -10.529  1.00  0.00    -0.359 OA
HETATM   15  H   UNL     1       7.492  -2.393  -9.846  1.00  0.00     0.213 HD
ENDBRANCH   6  14
BRANCH   4  16
HETATM   16  O   UNL     1       4.765  -0.062 -13.313  1.00  0.00    -0.380 OA
HETATM   17  H   UNL     1       5.136  -0.414 -14.150  1.00  0.00     0.211 HD
ENDBRANCH   4  16
BRANCH   5  18
HETATM   18  O   UNL     1       7.679  -0.288 -12.935  1.00  0.00    -0.378 OA
HETATM   19  H   UNL     1       8.482  -0.692 -13.317  1.00  0.00     0.211 HD
ENDBRANCH   5  18
TORSDOF 6
ENDMDL
MODEL 6
REMARK VINA RESULT:    -4.468      1.851      2.908
REMARK INTER + INTRA:          -5.893
REMARK INTER:                  -5.513
REMARK INTRA:                  -0.380
REMARK UNBOUND:                -0.380
REMARK  6 active torsions:
REMARK  status: ('A' for Active; 'I' for Inactive)
REMARK    1  A    between atoms: S_1  and  C_15 
REMARK    2  A    between atoms: O_3  and  C_10 
REMARK    3  A    between atoms: O_4  and  C_12 
REMARK    4  A    between atoms: O_5  and  C_13 
REMARK    5  A    between atoms: O_6  and  C_14 
REMARK    6  A    between atoms: C_11  and  C_15 
ROOT
HETATM    1  O   UNL     1       0.500  16.209  -6.710  1.00  0.00    -0.328 OA
HETATM    2  C   UNL     1       1.273  14.283  -5.383  1.00  0.00     0.168 C 
HETATM    3  C   UNL     1       0.711  14.772  -6.741  1.00  0.00     0.166 C 
HETATM    4  C   UNL     1       2.497  15.117  -4.962  1.00  0.00     0.172 C 
HETATM    5  C   UNL     1       2.216  16.618  -5.022  1.00  0.00     0.197 C 
HETATM    6  C   UNL     1       1.653  16.968  -6.405  1.00  0.00     0.263 C 
ENDROOT
BRANCH   3   7
HETATM    7  C   UNL     1      -0.663  14.200  -7.090  1.00  0.00     0.178 C 
BRANCH   7   8
HETATM    8  S   UNL     1      -0.622  12.833  -8.204  1.00  0.00     0.118 S 
HETATM    9  O   UNL     1       0.807  12.535  -8.296  1.00  0.00    -0.594 OA
HETATM   10  O   UNL     1      -1.413  11.819  -7.513  1.00  0.00    -0.594 OA
HETATM   11  O   UNL     1      -1.222  13.366  -9.422  1.00  0.00    -0.594 OA
ENDBRANCH   7   8
ENDBRANCH   3   7
BRANCH   2  12
HETATM   12  O   UNL     1       1.739  12.931  -5.360  1.00  0.00    -0.380 OA
HETATM   13  H   UNL     1       2.505  12.847  -5.986  1.00  0.00     0.211 HD
ENDBRANCH   2  12
BRANCH   6  14
HETATM   14  O   UNL     1       2.647  16.778  -7.404  1.00  0.00    -0.359 OA
HETATM   15  H   UNL     1       2.951  15.863  -7.271  1.00  0.00     0.213 HD
ENDBRANCH   6  14
BRANCH   4  16
HETATM   16  O   UNL     1       2.876  14.723  -3.629  1.00  0.00    -0.380 OA
HETATM   17  H   UNL     1       2.103  14.984  -3.085  1.00  0.00     0.211 HD
ENDBRANCH   4  16
BRANCH   5  18
HETATM   18  O   UNL     1       3.414  17.380  -4.784  1.00  0.00    -0.378 OA
HETATM   19  H   UNL     1       3.215  18.276  -5.119  1.00  0.00     0.211 HD
ENDBRANCH   5  18
TORSDOF 6
ENDMDL
MODEL 7
REMARK VINA RESULT:    -4.435     32.176     33.179
REMARK INTER + INTRA:          -5.852
REMARK INTER:                  -5.445
REMARK INTRA:                  -0.407
REMARK UNBOUND:                -0.380
REMARK  6 active torsions:
REMARK  status: ('A' for Active; 'I' for Inactive)
REMARK    1  A    between atoms: S_1  and  C_15 
REMARK    2  A    between atoms: O_3  and  C_10 
REMARK    3  A    between atoms: O_4  and  C_12 
REMARK    4  A    between atoms: O_5  and  C_13 
REMARK    5  A    between atoms: O_6  and  C_14 
REMARK    6  A    between atoms: C_11  and  C_15 
ROOT
HETATM    1  O   UNL     1     -15.359   0.228  18.125  1.00  0.00    -0.328 OA
HETATM    2  C   UNL     1     -16.947  -1.196  19.356  1.00  0.00     0.168 C 
HETATM    3  C   UNL     1     -16.648  -0.438  18.039  1.00  0.00     0.166 C 
HETATM    4  C   UNL     1     -15.766  -2.102  19.750  1.00  0.00     0.172 C 
HETATM    5  C   UNL     1     -14.438  -1.345  19.749  1.00  0.00     0.197 C 
HETATM    6  C   UNL     1     -14.270  -0.629  18.404  1.00  0.00     0.263 C 
ENDROOT
BRANCH   3   7
HETATM    7  C   UNL     1     -17.632   0.691  17.732  1.00  0.00     0.178 C 
BRANCH   7   8
HETATM    8  S   UNL     1     -18.786   0.322  16.450  1.00  0.00     0.118 S 
HETATM    9  O   UNL     1     -19.645   1.505  16.439  1.00  0.00    -0.594 OA
HETATM   10  O   UNL     1     -17.936   0.175  15.272  1.00  0.00    -0.594 OA
HETATM   11  O   UNL     1     -19.429  -0.904  16.909  1.00  0.00    -0.594 OA
ENDBRANCH   7   8
ENDBRANCH   3   7
BRANCH   2  12
HETATM   12  O   UNL     1     -18.073  -2.078  19.317  1.00  0.00    -0.380 OA
HETATM   13  H   UNL     1     -17.750  -3.000  19.137  1.00  0.00     0.211 HD
ENDBRANCH   2  12
BRANCH   6  14
HETATM   14  O   UNL     1     -14.108  -1.579  17.358  1.00  0.00    -0.359 OA
HETATM   15  H   UNL     1     -13.986  -1.038  16.557  1.00  0.00     0.213 HD
ENDBRANCH   6  14
BRANCH   4  16
HETATM   16  O   UNL     1     -16.035  -2.655  21.053  1.00  0.00    -0.380 OA
HETATM   17  H   UNL     1     -15.494  -2.101  21.653  1.00  0.00     0.211 HD
ENDBRANCH   4  16
BRANCH   5  18
HETATM   18  O   UNL     1     -13.330  -2.239  19.960  1.00  0.00    -0.378 OA
HETATM   19  H   UNL     1     -13.645  -2.880  20.626  1.00  0.00     0.211 HD
ENDBRANCH   5  18
TORSDOF 6
ENDMDL
MODEL 8
REMARK VINA RESULT:    -4.409     16.071     18.152
REMARK INTER + INTRA:          -5.819
REMARK INTER:                  -5.440
REMARK INTRA:                  -0.379
REMARK UNBOUND:                -0.380
REMARK  6 active torsions:
REMARK  status: ('A' for Active; 'I' for Inactive)
REMARK    1  A    between atoms: S_1  and  C_15 
REMARK    2  A    between atoms: O_3  and  C_10 
REMARK    3  A    between atoms: O_4  and  C_12 
REMARK    4  A    between atoms: O_5  and  C_13 
REMARK    5  A    between atoms: O_6  and  C_14 
REMARK    6  A    between atoms: C_11  and  C_15 
ROOT
HETATM    1  O   UNL     1       3.380  -1.946 -10.307  1.00  0.00    -0.328 OA
HETATM    2  C   UNL     1       4.707  -3.507 -11.673  1.00  0.00     0.168 C 
HETATM    3  C   UNL     1       4.689  -2.169 -10.894  1.00  0.00     0.166 C 
HETATM    4  C   UNL     1       4.175  -4.659 -10.800  1.00  0.00     0.172 C 
HETATM    5  C   UNL     1       2.828  -4.320 -10.164  1.00  0.00     0.197 C 
HETATM    6  C   UNL     1       2.939  -2.973  -9.440  1.00  0.00     0.263 C 
ENDROOT
BRANCH   3   7
HETATM    7  C   UNL     1       4.922  -0.936 -11.767  1.00  0.00     0.178 C 
BRANCH   7   8
HETATM    8  S   UNL     1       6.616  -0.481 -11.950  1.00  0.00     0.118 S 
HETATM    9  O   UNL     1       6.631   0.903 -11.477  1.00  0.00    -0.594 OA
HETATM   10  O   UNL     1       7.308  -1.429 -11.083  1.00  0.00    -0.594 OA
HETATM   11  O   UNL     1       6.864  -0.649 -13.378  1.00  0.00    -0.594 OA
ENDBRANCH   7   8
ENDBRANCH   3   7
BRANCH   2  12
HETATM   12  O   UNL     1       5.996  -3.953 -12.103  1.00  0.00    -0.380 OA
HETATM   13  H   UNL     1       6.602  -3.982 -11.317  1.00  0.00     0.211 HD
ENDBRANCH   2  12
BRANCH   6  14
HETATM   14  O   UNL     1       3.813  -3.085  -8.323  1.00  0.00    -0.359 OA
HETATM   15  H   UNL     1       4.373  -2.290  -8.375  1.00  0.00     0.213 HD
ENDBRANCH   6  14
BRANCH   4  16
HETATM   16  O   UNL     1       4.068  -5.837 -11.623  1.00  0.00    -0.380 OA
HETATM   17  H   UNL     1       3.460  -5.560 -12.340  1.00  0.00     0.211 HD
ENDBRANCH   4  16
BRANCH   5  18
HETATM   18  O   UNL     1       2.426  -5.337  -9.227  1.00  0.00    -0.378 OA
HETATM   19  H   UNL     1       2.999  -6.103  -9.423  1.00  0.00     0.211 HD
ENDBRANCH   5  18
TORSDOF 6
ENDMDL
MODEL 9
REMARK VINA RESULT:    -4.313      1.427      1.505
REMARK INTER + INTRA:          -5.702
REMARK INTER:                  -5.321
REMARK INTRA:                  -0.380
REMARK UNBOUND:                -0.380
REMARK  6 active torsions:
REMARK  status: ('A' for Active; 'I' for Inactive)
REMARK    1  A    between atoms: S_1  and  C_15 
REMARK    2  A    between atoms: O_3  and  C_10 
REMARK    3  A    between atoms: O_4  and  C_12 
REMARK    4  A    between atoms: O_5  and  C_13 
REMARK    5  A    between atoms: O_6  and  C_14 
REMARK    6  A    between atoms: C_11  and  C_15 
ROOT
HETATM    1  O   UNL     1       2.033  14.691  -6.205  1.00  0.00    -0.328 OA
HETATM    2  C   UNL     1      -0.177  15.219  -5.256  1.00  0.00     0.168 C 
HETATM    3  C   UNL     1       0.636  14.294  -6.194  1.00  0.00     0.166 C 
HETATM    4  C   UNL     1       0.487  15.318  -3.870  1.00  0.00     0.172 C 
HETATM    5  C   UNL     1       1.971  15.672  -3.970  1.00  0.00     0.197 C 
HETATM    6  C   UNL     1       2.655  14.696  -4.935  1.00  0.00     0.263 C 
ENDROOT
BRANCH   3   7
HETATM    7  C   UNL     1       0.215  14.369  -7.662  1.00  0.00     0.178 C 
BRANCH   7   8
HETATM    8  S   UNL     1      -0.941  13.131  -8.153  1.00  0.00     0.118 S 
HETATM    9  O   UNL     1      -2.016  13.916  -8.759  1.00  0.00    -0.594 OA
HETATM   10  O   UNL     1      -0.176  12.318  -9.093  1.00  0.00    -0.594 OA
HETATM   11  O   UNL     1      -1.289  12.471  -6.899  1.00  0.00    -0.594 OA
ENDBRANCH   7   8
ENDBRANCH   3   7
BRANCH   2  12
HETATM   12  O   UNL     1      -1.515  14.795  -4.979  1.00  0.00    -0.380 OA
HETATM   13  H   UNL     1      -1.490  13.859  -4.649  1.00  0.00     0.211 HD
ENDBRANCH   2  12
BRANCH   6  14
HETATM   14  O   UNL     1       2.664  13.384  -4.385  1.00  0.00    -0.359 OA
HETATM   15  H   UNL     1       3.058  13.496  -3.501  1.00  0.00     0.213 HD
ENDBRANCH   6  14
BRANCH   4  16
HETATM   16  O   UNL     1      -0.221  16.308  -3.099  1.00  0.00    -0.380 OA
HETATM   17  H   UNL     1       0.457  16.637  -2.471  1.00  0.00     0.211 HD
ENDBRANCH   4  16
BRANCH   5  18
HETATM   18  O   UNL     1       2.609  15.600  -2.682  1.00  0.00    -0.378 OA
HETATM   19  H   UNL     1       3.503  15.250  -2.861  1.00  0.00     0.211 HD
ENDBRANCH   5  18
TORSDOF 6
ENDMDL
MODEL 10
REMARK VINA RESULT:    -4.261      2.692      5.400
REMARK INTER + INTRA:          -5.637
REMARK INTER:                  -5.158
REMARK INTRA:                  -0.479
REMARK UNBOUND:                -0.380
REMARK  6 active torsions:
REMARK  status: ('A' for Active; 'I' for Inactive)
REMARK    1  A    between atoms: S_1  and  C_15 
REMARK    2  A    between atoms: O_3  and  C_10 
REMARK    3  A    between atoms: O_4  and  C_12 
REMARK    4  A    between atoms: O_5  and  C_13 
REMARK    5  A    between atoms: O_6  and  C_14 
REMARK    6  A    between atoms: C_11  and  C_15 
ROOT
HETATM    1  O   UNL     1      -0.361  16.537  -6.727  1.00  0.00    -0.328 OA
HETATM    2  C   UNL     1       0.205  14.233  -6.070  1.00  0.00     0.168 C 
HETATM    3  C   UNL     1       0.306  15.737  -5.715  1.00  0.00     0.166 C 
HETATM    4  C   UNL     1      -1.252  13.833  -6.366  1.00  0.00     0.172 C 
HETATM    5  C   UNL     1      -1.904  14.765  -7.387  1.00  0.00     0.197 C 
HETATM    6  C   UNL     1      -1.723  16.217  -6.930  1.00  0.00     0.263 C 
ENDROOT
BRANCH   3   7
HETATM    7  C   UNL     1       1.736  16.278  -5.693  1.00  0.00     0.178 C 
BRANCH   7   8
HETATM    8  S   UNL     1       2.603  15.984  -4.185  1.00  0.00     0.118 S 
HETATM    9  O   UNL     1       1.520  15.856  -3.211  1.00  0.00    -0.594 OA
HETATM   10  O   UNL     1       3.328  14.747  -4.456  1.00  0.00    -0.594 OA
HETATM   11  O   UNL     1       3.435  17.172  -4.031  1.00  0.00    -0.594 OA
ENDBRANCH   7   8
ENDBRANCH   3   7
BRANCH   2  12
HETATM   12  O   UNL     1       0.619  13.328  -5.041  1.00  0.00    -0.380 OA
HETATM   13  H   UNL     1       0.913  13.855  -4.253  1.00  0.00     0.211 HD
ENDBRANCH   2  12
BRANCH   6  14
HETATM   14  O   UNL     1      -2.468  16.456  -5.742  1.00  0.00    -0.359 OA
HETATM   15  H   UNL     1      -2.005  17.195  -5.311  1.00  0.00     0.213 HD
ENDBRANCH   6  14
BRANCH   4  16
HETATM   16  O   UNL     1      -1.261  12.473  -6.839  1.00  0.00    -0.380 OA
HETATM   17  H   UNL     1      -1.960  12.047  -6.300  1.00  0.00     0.211 HD
ENDBRANCH   4  16
BRANCH   5  18
HETATM   18  O   UNL     1      -3.308  14.477  -7.529  1.00  0.00    -0.378 OA
HETATM   19  H   UNL     1      -3.473  14.488  -8.492  1.00  0.00     0.211 HD
ENDBRANCH   5  18
TORSDOF 6
ENDMDL
MODEL 11
REMARK VINA RESULT:    -4.202     15.828     17.865
REMARK INTER + INTRA:          -5.564
REMARK INTER:                  -5.182
REMARK INTRA:                  -0.382
REMARK UNBOUND:                -0.380
REMARK  6 active torsions:
REMARK  status: ('A' for Active; 'I' for Inactive)
REMARK    1  A    between atoms: S_1  and  C_15 
REMARK    2  A    between atoms: O_3  and  C_10 
REMARK    3  A    between atoms: O_4  and  C_12 
REMARK    4  A    between atoms: O_5  and  C_13 
REMARK    5  A    between atoms: O_6  and  C_14 
REMARK    6  A    between atoms: C_11  and  C_15 
ROOT
HETATM    1  O   UNL     1       8.237   9.775 -20.800  1.00  0.00    -0.328 OA
HETATM    2  C   UNL     1       7.329   7.519 -21.190  1.00  0.00     0.168 C 
HETATM    3  C   UNL     1       8.575   8.437 -21.253  1.00  0.00     0.166 C 
HETATM    4  C   UNL     1       6.660   7.593 -19.806  1.00  0.00     0.172 C 
HETATM    5  C   UNL     1       6.400   9.036 -19.372  1.00  0.00     0.197 C 
HETATM    6  C   UNL     1       7.701   9.838 -19.494  1.00  0.00     0.263 C 
ENDROOT
BRANCH   3   7
HETATM    7  C   UNL     1       9.125   8.647 -22.664  1.00  0.00     0.178 C 
BRANCH   7   8
HETATM    8  S   UNL     1      10.602   7.748 -23.013  1.00  0.00     0.118 S 
HETATM    9  O   UNL     1      10.540   7.577 -24.464  1.00  0.00    -0.594 OA
HETATM   10  O   UNL     1      11.653   8.648 -22.549  1.00  0.00    -0.594 OA
HETATM   11  O   UNL     1      10.446   6.522 -22.239  1.00  0.00    -0.594 OA
ENDBRANCH   7   8
ENDBRANCH   3   7
BRANCH   2  12
HETATM   12  O   UNL     1       7.580   6.125 -21.389  1.00  0.00    -0.380 OA
HETATM   13  H   UNL     1       8.154   5.796 -20.649  1.00  0.00     0.211 HD
ENDBRANCH   2  12
BRANCH   6  14
HETATM   14  O   UNL     1       8.656   9.375 -18.546  1.00  0.00    -0.359 OA
HETATM   15  H   UNL     1       9.346  10.062 -18.544  1.00  0.00     0.213 HD
ENDBRANCH   6  14
BRANCH   4  16
HETATM   16  O   UNL     1       5.428   6.848 -19.858  1.00  0.00    -0.380 OA
HETATM   17  H   UNL     1       5.697   5.944 -19.591  1.00  0.00     0.211 HD
ENDBRANCH   4  16
BRANCH   5  18
HETATM   18  O   UNL     1       5.927   9.092 -18.014  1.00  0.00    -0.378 OA
HETATM   19  H   UNL     1       5.798  10.042 -17.829  1.00  0.00     0.211 HD
ENDBRANCH   5  18
TORSDOF 6
ENDMDL
MODEL 12
REMARK VINA RESULT:    -4.189     32.229     33.616
REMARK INTER + INTRA:          -5.549
REMARK INTER:                  -5.129
REMARK INTRA:                  -0.420
REMARK UNBOUND:                -0.380
REMARK  6 active torsions:
REMARK  status: ('A' for Active; 'I' for Inactive)
REMARK    1  A    between atoms: S_1  and  C_15 
REMARK    2  A    between atoms: O_3  and  C_10 
REMARK    3  A    between atoms: O_4  and  C_12 
REMARK    4  A    between atoms: O_5  and  C_13 
REMARK    5  A    between atoms: O_6  and  C_14 
REMARK    6  A    between atoms: C_11  and  C_15 
ROOT
HETATM    1  O   UNL     1     -10.322 -18.273  -6.386  1.00  0.00    -0.328 OA
HETATM    2  C   UNL     1     -10.222 -18.904  -4.008  1.00  0.00     0.168 C 
HETATM    3  C   UNL     1      -9.419 -18.537  -5.280  1.00  0.00     0.166 C 
HETATM    4  C   UNL     1     -11.316 -17.857  -3.726  1.00  0.00     0.172 C 
HETATM    5  C   UNL     1     -12.179 -17.586  -4.958  1.00  0.00     0.197 C 
HETATM    6  C   UNL     1     -11.268 -17.251  -6.145  1.00  0.00     0.263 C 
ENDROOT
BRANCH   3   7
HETATM    7  C   UNL     1      -8.516 -19.659  -5.793  1.00  0.00     0.178 C 
BRANCH   7   8
HETATM    8  S   UNL     1      -6.818 -19.488  -5.349  1.00  0.00     0.118 S 
HETATM    9  O   UNL     1      -6.166 -20.509  -6.168  1.00  0.00    -0.594 OA
HETATM   10  O   UNL     1      -6.512 -18.113  -5.731  1.00  0.00    -0.594 OA
HETATM   11  O   UNL     1      -6.811 -19.751  -3.914  1.00  0.00    -0.594 OA
ENDBRANCH   7   8
ENDBRANCH   3   7
BRANCH   2  12
HETATM   12  O   UNL     1      -9.465 -18.961  -2.795  1.00  0.00    -0.380 OA
HETATM   13  H   UNL     1     -10.007 -18.568  -2.062  1.00  0.00     0.211 HD
ENDBRANCH   2  12
BRANCH   6  14
HETATM   14  O   UNL     1     -10.608 -16.010  -5.924  1.00  0.00    -0.359 OA
HETATM   15  H   UNL     1      -9.985 -15.933  -6.668  1.00  0.00     0.213 HD
ENDBRANCH   6  14
BRANCH   4  16
HETATM   16  O   UNL     1     -12.125 -18.331  -2.632  1.00  0.00    -0.380 OA
HETATM   17  H   UNL     1     -11.890 -19.281  -2.569  1.00  0.00     0.211 HD
ENDBRANCH   4  16
BRANCH   5  18
HETATM   18  O   UNL     1     -13.086 -16.493  -4.725  1.00  0.00    -0.378 OA
HETATM   19  H   UNL     1     -13.863 -16.684  -5.286  1.00  0.00     0.211 HD
ENDBRANCH   5  18
TORSDOF 6
ENDMDL
MODEL 13
REMARK VINA RESULT:    -4.163      2.364      5.067
REMARK INTER + INTRA:          -5.516
REMARK INTER:                  -5.036
REMARK INTRA:                  -0.480
REMARK UNBOUND:                -0.380
REMARK  6 active torsions:
REMARK  status: ('A' for Active; 'I' for Inactive)
REMARK    1  A    between atoms: S_1  and  C_15 
REMARK    2  A    between atoms: O_3  and  C_10 
REMARK    3  A    between atoms: O_4  and  C_12 
REMARK    4  A    between atoms: O_5  and  C_13 
REMARK    5  A    between atoms: O_6  and  C_14 
REMARK    6  A    between atoms: C_11  and  C_15 
ROOT
HETATM    1  O   UNL     1       0.405  15.778  -8.397  1.00  0.00    -0.328 OA
HETATM    2  C   UNL     1      -0.372  13.554  -7.679  1.00  0.00     0.168 C 
HETATM    3  C   UNL     1       0.191  14.928  -7.238  1.00  0.00     0.166 C 
HETATM    4  C   UNL     1      -1.595  13.730  -8.597  1.00  0.00     0.172 C 
HETATM    5  C   UNL     1      -1.312  14.691  -9.751  1.00  0.00     0.197 C 
HETATM    6  C   UNL     1      -0.747  16.001  -9.186  1.00  0.00     0.263 C 
ENDROOT
BRANCH   3   7
HETATM    7  C   UNL     1       1.565  14.853  -6.571  1.00  0.00     0.178 C 
BRANCH   7   8
HETATM    8  S   UNL     1       1.528  14.346  -4.882  1.00  0.00     0.118 S 
HETATM    9  O   UNL     1       0.175  14.711  -4.466  1.00  0.00    -0.594 OA
HETATM   10  O   UNL     1       1.775  12.910  -4.963  1.00  0.00    -0.594 OA
HETATM   11  O   UNL     1       2.595  15.127  -4.266  1.00  0.00    -0.594 OA
ENDBRANCH   7   8
ENDBRANCH   3   7
BRANCH   2  12
HETATM   12  O   UNL     1      -0.841  12.712  -6.621  1.00  0.00    -0.380 OA
HETATM   13  H   UNL     1      -1.794  12.491  -6.789  1.00  0.00     0.211 HD
ENDBRANCH   2  12
BRANCH   6  14
HETATM   14  O   UNL     1      -1.742  16.679  -8.427  1.00  0.00    -0.359 OA
HETATM   15  H   UNL     1      -2.334  17.065  -9.097  1.00  0.00     0.213 HD
ENDBRANCH   6  14
BRANCH   4  16
HETATM   16  O   UNL     1      -1.975  12.433  -9.097  1.00  0.00    -0.380 OA
HETATM   17  H   UNL     1      -1.214  11.864  -8.859  1.00  0.00     0.211 HD
ENDBRANCH   4  16
BRANCH   5  18
HETATM   18  O   UNL     1      -2.508  14.969 -10.501  1.00  0.00    -0.378 OA
HETATM   19  H   UNL     1      -3.031  15.568  -9.933  1.00  0.00     0.211 HD
ENDBRANCH   5  18
TORSDOF 6
ENDMDL
MODEL 14
REMARK VINA RESULT:    -4.157     11.331     13.208
REMARK INTER + INTRA:          -5.509
REMARK INTER:                  -5.095
REMARK INTRA:                  -0.414
REMARK UNBOUND:                -0.380
REMARK  6 active torsions:
REMARK  status: ('A' for Active; 'I' for Inactive)
REMARK    1  A    between atoms: S_1  and  C_15 
REMARK    2  A    between atoms: O_3  and  C_10 
REMARK    3  A    between atoms: O_4  and  C_12 
REMARK    4  A    between atoms: O_5  and  C_13 
REMARK    5  A    between atoms: O_6  and  C_14 
REMARK    6  A    between atoms: C_11  and  C_15 
ROOT
HETATM    1  O   UNL     1     -11.117   8.729 -11.807  1.00  0.00    -0.328 OA
HETATM    2  C   UNL     1      -9.403   7.691 -10.375  1.00  0.00     0.168 C 
HETATM    3  C   UNL     1     -10.902   7.745 -10.760  1.00  0.00     0.166 C 
HETATM    4  C   UNL     1      -8.519   7.522 -11.624  1.00  0.00     0.172 C 
HETATM    5  C   UNL     1      -8.854   8.550 -12.705  1.00  0.00     0.197 C 
HETATM    6  C   UNL     1     -10.362   8.514 -12.982  1.00  0.00     0.263 C 
ENDROOT
BRANCH   3   7
HETATM    7  C   UNL     1     -11.822   8.199  -9.626  1.00  0.00     0.178 C 
BRANCH   7   8
HETATM    8  S   UNL     1     -12.360   6.901  -8.560  1.00  0.00     0.118 S 
HETATM    9  O   UNL     1     -13.630   7.412  -8.045  1.00  0.00    -0.594 OA
HETATM   10  O   UNL     1     -12.482   5.761  -9.463  1.00  0.00    -0.594 OA
HETATM   11  O   UNL     1     -11.289   6.800  -7.574  1.00  0.00    -0.594 OA
ENDBRANCH   7   8
ENDBRANCH   3   7
BRANCH   2  12
HETATM   12  O   UNL     1      -9.024   6.606  -9.522  1.00  0.00    -0.380 OA
HETATM   13  H   UNL     1      -9.292   5.754  -9.954  1.00  0.00     0.211 HD
ENDBRANCH   2  12
BRANCH   6  14
HETATM   14  O   UNL     1     -10.722   7.275 -13.581  1.00  0.00    -0.359 OA
HETATM   15  H   UNL     1     -11.293   6.845 -12.920  1.00  0.00     0.213 HD
ENDBRANCH   6  14
BRANCH   4  16
HETATM   16  O   UNL     1      -7.141   7.638 -11.222  1.00  0.00    -0.380 OA
HETATM   17  H   UNL     1      -7.194   8.065 -10.341  1.00  0.00     0.211 HD
ENDBRANCH   4  16
BRANCH   5  18
HETATM   18  O   UNL     1      -8.135   8.276 -13.922  1.00  0.00    -0.378 OA
HETATM   19  H   UNL     1      -7.931   9.154 -14.299  1.00  0.00     0.211 HD
ENDBRANCH   5  18
TORSDOF 6
ENDMDL
MODEL 15
REMARK VINA RESULT:    -4.134      3.643      6.459
REMARK INTER + INTRA:          -5.480
REMARK INTER:                  -5.060
REMARK INTRA:                  -0.420
REMARK UNBOUND:                -0.380
REMARK  6 active torsions:
REMARK  status: ('A' for Active; 'I' for Inactive)
REMARK    1  A    between atoms: S_1  and  C_15 
REMARK    2  A    between atoms: O_3  and  C_10 
REMARK    3  A    between atoms: O_4  and  C_12 
REMARK    4  A    between atoms: O_5  and  C_13 
REMARK    5  A    between atoms: O_6  and  C_14 
REMARK    6  A    between atoms: C_11  and  C_15 
ROOT
HETATM    1  O   UNL     1       1.329  16.749  -6.000  1.00  0.00    -0.328 OA
HETATM    2  C   UNL     1       2.815  15.087  -4.955  1.00  0.00     0.168 C 
HETATM    3  C   UNL     1       2.399  16.576  -5.033  1.00  0.00     0.166 C 
HETATM    4  C   UNL     1       1.587  14.182  -4.743  1.00  0.00     0.172 C 
HETATM    5  C   UNL     1       0.480  14.473  -5.756  1.00  0.00     0.197 C 
HETATM    6  C   UNL     1       0.173  15.975  -5.746  1.00  0.00     0.263 C 
ENDROOT
BRANCH   3   7
HETATM    7  C   UNL     1       3.505  17.508  -5.528  1.00  0.00     0.178 C 
BRANCH   7   8
HETATM    8  S   UNL     1       4.461  18.250  -4.245  1.00  0.00     0.118 S 
HETATM    9  O   UNL     1       3.446  18.617  -3.258  1.00  0.00    -0.594 OA
HETATM   10  O   UNL     1       5.353  17.172  -3.831  1.00  0.00    -0.594 OA
HETATM   11  O   UNL     1       5.112  19.374  -4.909  1.00  0.00    -0.594 OA
ENDBRANCH   7   8
ENDBRANCH   3   7
BRANCH   2  12
HETATM   12  O   UNL     1       3.695  14.748  -3.879  1.00  0.00    -0.380 OA
HETATM   13  H   UNL     1       4.170  15.569  -3.586  1.00  0.00     0.211 HD
ENDBRANCH   2  12
BRANCH   6  14
HETATM   14  O   UNL     1      -0.409  16.351  -4.504  1.00  0.00    -0.359 OA
HETATM   15  H   UNL     1       0.217  16.996  -4.130  1.00  0.00     0.213 HD
ENDBRANCH   6  14
BRANCH   4  16
HETATM   16  O   UNL     1       2.015  12.810  -4.837  1.00  0.00    -0.380 OA
HETATM   17  H   UNL     1       2.025  12.509  -3.904  1.00  0.00     0.211 HD
ENDBRANCH   4  16
BRANCH   5  18
HETATM   18  O   UNL     1      -0.716  13.736  -5.443  1.00  0.00    -0.378 OA
HETATM   19  H   UNL     1      -1.376  14.033  -6.100  1.00  0.00     0.211 HD
ENDBRANCH   5  18
TORSDOF 6
ENDMDL
MODEL 16
REMARK VINA RESULT:    -4.123     32.154     33.347
REMARK INTER + INTRA:          -5.466
REMARK INTER:                  -4.987
REMARK INTRA:                  -0.479
REMARK UNBOUND:                -0.380
REMARK  6 active torsions:
REMARK  status: ('A' for Active; 'I' for Inactive)
REMARK    1  A    between atoms: S_1  and  C_15 
REMARK    2  A    between atoms: O_3  and  C_10 
REMARK    3  A    between atoms: O_4  and  C_12 
REMARK    4  A    between atoms: O_5  and  C_13 
REMARK    5  A    between atoms: O_6  and  C_14 
REMARK    6  A    between atoms: C_11  and  C_15 
ROOT
HETATM    1  O   UNL     1     -18.922   1.144  18.964  1.00  0.00    -0.328 OA
HETATM    2  C   UNL     1     -19.252   0.486  16.614  1.00  0.00     0.168 C 
HETATM    3  C   UNL     1     -19.796   1.300  17.814  1.00  0.00     0.166 C 
HETATM    4  C   UNL     1     -17.768   0.807  16.358  1.00  0.00     0.172 C 
HETATM    5  C   UNL     1     -16.929   0.688  17.629  1.00  0.00     0.197 C 
HETATM    6  C   UNL     1     -17.578   1.523  18.740  1.00  0.00     0.263 C 
ENDROOT
BRANCH   3   7
HETATM    7  C   UNL     1     -21.162   0.832  18.317  1.00  0.00     0.178 C 
BRANCH   7   8
HETATM    8  S   UNL     1     -22.527   1.409  17.360  1.00  0.00     0.118 S 
HETATM    9  O   UNL     1     -23.561   1.625  18.372  1.00  0.00    -0.594 OA
HETATM   10  O   UNL     1     -22.009   2.628  16.747  1.00  0.00    -0.594 OA
HETATM   11  O   UNL     1     -22.786   0.311  16.437  1.00  0.00    -0.594 OA
ENDBRANCH   7   8
ENDBRANCH   3   7
BRANCH   2  12
HETATM   12  O   UNL     1     -19.892   0.737  15.359  1.00  0.00    -0.380 OA
HETATM   13  H   UNL     1     -20.129  -0.133  14.943  1.00  0.00     0.211 HD
ENDBRANCH   2  12
BRANCH   6  14
HETATM   14  O   UNL     1     -17.502   2.908  18.423  1.00  0.00    -0.359 OA
HETATM   15  H   UNL     1     -17.129   3.318  19.223  1.00  0.00     0.213 HD
ENDBRANCH   6  14
BRANCH   4  16
HETATM   16  O   UNL     1     -17.281  -0.088  15.340  1.00  0.00    -0.380 OA
HETATM   17  H   UNL     1     -16.368   0.229  15.175  1.00  0.00     0.211 HD
ENDBRANCH   4  16
BRANCH   5  18
HETATM   18  O   UNL     1     -15.583   1.148  17.408  1.00  0.00    -0.378 OA
HETATM   19  H   UNL     1     -15.680   2.027  16.994  1.00  0.00     0.211 HD
ENDBRANCH   5  18
TORSDOF 6
ENDMDL
MODEL 17
REMARK VINA RESULT:    -3.965      3.541      5.372
REMARK INTER + INTRA:          -5.272
REMARK INTER:                  -4.897
REMARK INTRA:                  -0.375
REMARK UNBOUND:                -0.380
REMARK  6 active torsions:
REMARK  status: ('A' for Active; 'I' for Inactive)
REMARK    1  A    between atoms: S_1  and  C_15 
REMARK    2  A    between atoms: O_3  and  C_10 
REMARK    3  A    between atoms: O_4  and  C_12 
REMARK    4  A    between atoms: O_5  and  C_13 
REMARK    5  A    between atoms: O_6  and  C_14 
REMARK    6  A    between atoms: C_11  and  C_15 
ROOT
HETATM    1  O   UNL     1       2.224  18.031  -4.717  1.00  0.00    -0.328 OA
HETATM    2  C   UNL     1       3.455  16.040  -3.954  1.00  0.00     0.168 C 
HETATM    3  C   UNL     1       2.346  16.593  -4.882  1.00  0.00     0.166 C 
HETATM    4  C   UNL     1       4.763  16.833  -4.125  1.00  0.00     0.172 C 
HETATM    5  C   UNL     1       4.539  18.340  -4.006  1.00  0.00     0.197 C 
HETATM    6  C   UNL     1       3.413  18.757  -4.960  1.00  0.00     0.263 C 
ENDROOT
BRANCH   3   7
HETATM    7  C   UNL     1       0.947  16.061  -4.570  1.00  0.00     0.178 C 
BRANCH   7   8
HETATM    8  S   UNL     1       0.455  14.684  -5.555  1.00  0.00     0.118 S 
HETATM    9  O   UNL     1       1.577  14.532  -6.480  1.00  0.00    -0.594 OA
HETATM   10  O   UNL     1       0.321  13.609  -4.577  1.00  0.00    -0.594 OA
HETATM   11  O   UNL     1      -0.793  15.128  -6.165  1.00  0.00    -0.594 OA
ENDBRANCH   7   8
ENDBRANCH   3   7
BRANCH   2  12
HETATM   12  O   UNL     1       3.831  14.679  -4.187  1.00  0.00    -0.380 OA
HETATM   13  H   UNL     1       3.008  14.130  -4.265  1.00  0.00     0.211 HD
ENDBRANCH   2  12
BRANCH   6  14
HETATM   14  O   UNL     1       3.825  18.590  -6.311  1.00  0.00    -0.359 OA
HETATM   15  H   UNL     1       3.911  17.626  -6.420  1.00  0.00     0.213 HD
ENDBRANCH   6  14
BRANCH   4  16
HETATM   16  O   UNL     1       5.702  16.378  -3.131  1.00  0.00    -0.380 OA
HETATM   17  H   UNL     1       6.036  17.210  -2.735  1.00  0.00     0.211 HD
ENDBRANCH   4  16
BRANCH   5  18
HETATM   18  O   UNL     1       5.737  19.070  -4.330  1.00  0.00    -0.378 OA
HETATM   19  H   UNL     1       5.449  19.998  -4.432  1.00  0.00     0.211 HD
ENDBRANCH   5  18
TORSDOF 6
ENDMDL
MODEL 18
REMARK VINA RESULT:    -3.951     32.869     33.838
REMARK INTER + INTRA:          -5.254
REMARK INTER:                  -4.799
REMARK INTRA:                  -0.455
REMARK UNBOUND:                -0.380
REMARK  6 active torsions:
REMARK  status: ('A' for Active; 'I' for Inactive)
REMARK    1  A    between atoms: S_1  and  C_15 
REMARK    2  A    between atoms: O_3  and  C_10 
REMARK    3  A    between atoms: O_4  and  C_12 
REMARK    4  A    between atoms: O_5  and  C_13 
REMARK    5  A    between atoms: O_6  and  C_14 
REMARK    6  A    between atoms: C_11  and  C_15 
ROOT
HETATM    1  O   UNL     1      -6.007 -18.816  -6.979  1.00  0.00    -0.328 OA
HETATM    2  C   UNL     1      -5.745 -19.191  -4.559  1.00  0.00     0.168 C 
HETATM    3  C   UNL     1      -6.564 -19.514  -5.833  1.00  0.00     0.166 C 
HETATM    4  C   UNL     1      -4.242 -19.420  -4.798  1.00  0.00     0.172 C 
HETATM    5  C   UNL     1      -3.748 -18.711  -6.059  1.00  0.00     0.197 C 
HETATM    6  C   UNL     1      -4.647 -19.101  -7.239  1.00  0.00     0.263 C 
ENDROOT
BRANCH   3   7
HETATM    7  C   UNL     1      -8.017 -19.040  -5.777  1.00  0.00     0.178 C 
BRANCH   7   8
HETATM    8  S   UNL     1      -9.073 -20.045  -4.784  1.00  0.00     0.118 S 
HETATM    9  O   UNL     1      -9.093 -19.329  -3.509  1.00  0.00    -0.594 OA
HETATM   10  O   UNL     1     -10.336 -20.022  -5.516  1.00  0.00    -0.594 OA
HETATM   11  O   UNL     1      -8.393 -21.335  -4.758  1.00  0.00    -0.594 OA
ENDBRANCH   7   8
ENDBRANCH   3   7
BRANCH   2  12
HETATM   12  O   UNL     1      -6.048 -19.991  -3.412  1.00  0.00    -0.380 OA
HETATM   13  H   UNL     1      -5.469 -19.701  -2.660  1.00  0.00     0.211 HD
ENDBRANCH   2  12
BRANCH   6  14
HETATM   14  O   UNL     1      -4.481 -20.479  -7.549  1.00  0.00    -0.359 OA
HETATM   15  H   UNL     1      -4.983 -20.603  -8.374  1.00  0.00     0.213 HD
ENDBRANCH   6  14
BRANCH   4  16
HETATM   16  O   UNL     1      -3.523 -18.956  -3.639  1.00  0.00    -0.380 OA
HETATM   17  H   UNL     1      -4.190 -18.426  -3.154  1.00  0.00     0.211 HD
ENDBRANCH   4  16
BRANCH   5  18
HETATM   18  O   UNL     1      -2.385 -19.068  -6.355  1.00  0.00    -0.378 OA
HETATM   19  H   UNL     1      -1.887 -18.869  -5.538  1.00  0.00     0.211 HD
ENDBRANCH   5  18
TORSDOF 6
ENDMDL
MODEL 19
REMARK VINA RESULT:    -3.930     16.816     18.662
REMARK INTER + INTRA:          -5.229
REMARK INTER:                  -4.818
REMARK INTRA:                  -0.411
REMARK UNBOUND:                -0.380
REMARK  6 active torsions:
REMARK  status: ('A' for Active; 'I' for Inactive)
REMARK    1  A    between atoms: S_1  and  C_15 
REMARK    2  A    between atoms: O_3  and  C_10 
REMARK    3  A    between atoms: O_4  and  C_12 
REMARK    4  A    between atoms: O_5  and  C_13 
REMARK    5  A    between atoms: O_6  and  C_14 
REMARK    6  A    between atoms: C_11  and  C_15 
ROOT
HETATM    1  O   UNL     1       2.806  -5.310 -11.405  1.00  0.00    -0.328 OA
HETATM    2  C   UNL     1       2.293  -2.970 -11.973  1.00  0.00     0.168 C 
HETATM    3  C   UNL     1       1.857  -4.451 -12.091  1.00  0.00     0.166 C 
HETATM    4  C   UNL     1       2.576  -2.594 -10.507  1.00  0.00     0.172 C 
HETATM    5  C   UNL     1       3.528  -3.584  -9.836  1.00  0.00     0.197 C 
HETATM    6  C   UNL     1       2.995  -5.007 -10.037  1.00  0.00     0.263 C 
ENDROOT
BRANCH   3   7
HETATM    7  C   UNL     1       1.838  -4.984 -13.523  1.00  0.00     0.178 C 
BRANCH   7   8
HETATM    8  S   UNL     1       0.223  -5.202 -14.198  1.00  0.00     0.118 S 
HETATM    9  O   UNL     1      -0.407  -6.109 -13.239  1.00  0.00    -0.594 OA
HETATM   10  O   UNL     1      -0.319  -3.847 -14.203  1.00  0.00    -0.594 OA
HETATM   11  O   UNL     1       0.476  -5.776 -15.515  1.00  0.00    -0.594 OA
ENDBRANCH   7   8
ENDBRANCH   3   7
BRANCH   2  12
HETATM   12  O   UNL     1       1.327  -2.006 -12.406  1.00  0.00    -0.380 OA
HETATM   13  H   UNL     1       0.667  -2.459 -12.993  1.00  0.00     0.211 HD
ENDBRANCH   2  12
BRANCH   6  14
HETATM   14  O   UNL     1       1.778  -5.182  -9.320  1.00  0.00    -0.359 OA
HETATM   15  H   UNL     1       1.433  -4.279  -9.207  1.00  0.00     0.213 HD
ENDBRANCH   6  14
BRANCH   4  16
HETATM   16  O   UNL     1       3.125  -1.262 -10.480  1.00  0.00    -0.380 OA
HETATM   17  H   UNL     1       3.966  -1.350 -10.977  1.00  0.00     0.211 HD
ENDBRANCH   4  16
BRANCH   5  18
HETATM   18  O   UNL     1       3.653  -3.311  -8.428  1.00  0.00    -0.378 OA
HETATM   19  H   UNL     1       4.052  -4.118  -8.048  1.00  0.00     0.211 HD
ENDBRANCH   5  18
TORSDOF 6
ENDMDL
MODEL 20
REMARK VINA RESULT:    -3.851     29.072     30.485
REMARK INTER + INTRA:          -5.132
REMARK INTER:                  -4.717
REMARK INTRA:                  -0.415
REMARK UNBOUND:                -0.380
REMARK  6 active torsions:
REMARK  status: ('A' for Active; 'I' for Inactive)
REMARK    1  A    between atoms: S_1  and  C_15 
REMARK    2  A    between atoms: O_3  and  C_10 
REMARK    3  A    between atoms: O_4  and  C_12 
REMARK    4  A    between atoms: O_5  and  C_13 
REMARK    5  A    between atoms: O_6  and  C_14 
REMARK    6  A    between atoms: C_11  and  C_15 
ROOT
HETATM    1  O   UNL     1       7.213  -6.601  16.170  1.00  0.00    -0.328 OA
HETATM    2  C   UNL     1       5.106  -7.148  15.021  1.00  0.00     0.168 C 
HETATM    3  C   UNL     1       6.152  -6.053  15.344  1.00  0.00     0.166 C 
HETATM    4  C   UNL     1       5.785  -8.412  14.463  1.00  0.00     0.172 C 
HETATM    5  C   UNL     1       6.934  -8.884  15.353  1.00  0.00     0.197 C 
HETATM    6  C   UNL     1       7.887  -7.710  15.608  1.00  0.00     0.263 C 
ENDROOT
BRANCH   3   7
HETATM    7  C   UNL     1       5.602  -4.887  16.165  1.00  0.00     0.178 C 
BRANCH   7   8
HETATM    8  S   UNL     1       5.283  -3.424  15.232  1.00  0.00     0.118 S 
HETATM    9  O   UNL     1       6.566  -3.177  14.574  1.00  0.00    -0.594 OA
HETATM   10  O   UNL     1       4.207  -3.832  14.336  1.00  0.00    -0.594 OA
HETATM   11  O   UNL     1       4.910  -2.445  16.247  1.00  0.00    -0.594 OA
ENDBRANCH   7   8
ENDBRANCH   3   7
BRANCH   2  12
HETATM   12  O   UNL     1       4.135  -6.799  14.029  1.00  0.00    -0.380 OA
HETATM   13  H   UNL     1       4.347  -5.895  13.680  1.00  0.00     0.211 HD
ENDBRANCH   2  12
BRANCH   6  14
HETATM   14  O   UNL     1       8.538  -7.332  14.401  1.00  0.00    -0.359 OA
HETATM   15  H   UNL     1       7.809  -7.115  13.792  1.00  0.00     0.213 HD
ENDBRANCH   6  14
BRANCH   4  16
HETATM   16  O   UNL     1       4.786  -9.442  14.332  1.00  0.00    -0.380 OA
HETATM   17  H   UNL     1       5.215 -10.103  13.748  1.00  0.00     0.211 HD
ENDBRANCH   4  16
BRANCH   5  18
HETATM   18  O   UNL     1       7.659  -9.964  14.736  1.00  0.00    -0.378 OA
HETATM   19  H   UNL     1       8.559  -9.914  15.112  1.00  0.00     0.211 HD
ENDBRANCH   5  18
TORSDOF 6
ENDMDL
