MODEL 1
REMARK VINA RESULT:    -5.229      0.000      0.000
REMARK INTER + INTRA:          -6.833
REMARK INTER:                  -6.430
REMARK INTRA:                  -0.402
REMARK UNBOUND:                -0.381
REMARK  6 active torsions:
REMARK  status: ('A' for Active; 'I' for Inactive)
REMARK    1  A    between atoms: S_1  and  C_15 
REMARK    2  A    between atoms: O_3  and  C_10 
REMARK    3  A    between atoms: O_4  and  C_12 
REMARK    4  A    between atoms: O_5  and  C_13 
REMARK    5  A    between atoms: O_6  and  C_14 
REMARK    6  A    between atoms: C_11  and  C_15 
ROOT
HETATM    1  O   UNL     1       6.855   2.226 -12.368  1.00  0.00    -0.328 OA
HETATM    2  C   UNL     1       6.245   1.184 -10.222  1.00  0.00     0.168 C 
HETATM    3  C   UNL     1       6.944   1.002 -11.591  1.00  0.00     0.166 C 
HETATM    4  C   UNL     1       6.751   2.452  -9.509  1.00  0.00     0.172 C 
HETATM    5  C   UNL     1       6.689   3.681 -10.415  1.00  0.00     0.197 C 
HETATM    6  C   UNL     1       7.401   3.367 -11.737  1.00  0.00     0.263 C 
ENDROOT
BRANCH   3   7
HETATM    7  C   UNL     1       6.299  -0.057 -12.486  1.00  0.00     0.178 C 
BRANCH   7   8
HETATM    8  S   UNL     1       7.075  -1.640 -12.418  1.00  0.00     0.118 S 
HETATM    9  O   UNL     1       6.716  -2.117 -11.082  1.00  0.00    -0.594 OA
HETATM   10  O   UNL     1       6.442  -2.365 -13.514  1.00  0.00    -0.594 OA
HETATM   11  O   UNL     1       8.489  -1.336 -12.607  1.00  0.00    -0.594 OA
ENDBRANCH   7   8
ENDBRANCH   3   7
BRANCH   2  12
HETATM   12  O   UNL     1       6.461   0.134  -9.274  1.00  0.00    -0.380 OA
HETATM   13  H   UNL     1       6.125   0.431  -8.389  1.00  0.00     0.211 HD
ENDBRANCH   2  12
BRANCH   6  14
HETATM   14  O   UNL     1       8.795   3.190 -11.516  1.00  0.00    -0.359 OA
HETATM   15  H   UNL     1       9.157   4.093 -11.528  1.00  0.00     0.213 HD
ENDBRANCH   6  14
BRANCH   4  16
HETATM   16  O   UNL     1       5.957   2.652  -8.324  1.00  0.00    -0.380 OA
HETATM   17  H   UNL     1       6.152   3.580  -8.073  1.00  0.00     0.211 HD
ENDBRANCH   4  16
BRANCH   5  18
HETATM   18  O   UNL     1       7.315   4.818  -9.791  1.00  0.00    -0.378 OA
HETATM   19  H   UNL     1       8.274   4.632  -9.829  1.00  0.00     0.211 HD
ENDBRANCH   5  18
TORSDOF 6
ENDMDL
MODEL 2
REMARK VINA RESULT:    -5.049      2.526      4.690
REMARK INTER + INTRA:          -6.610
REMARK INTER:                  -6.229
REMARK INTRA:                  -0.381
REMARK UNBOUND:                -0.381
REMARK  6 active torsions:
REMARK  status: ('A' for Active; 'I' for Inactive)
REMARK    1  A    between atoms: S_1  and  C_15 
REMARK    2  A    between atoms: O_3  and  C_10 
REMARK    3  A    between atoms: O_4  and  C_12 
REMARK    4  A    between atoms: O_5  and  C_13 
REMARK    5  A    between atoms: O_6  and  C_14 
REMARK    6  A    between atoms: C_11  and  C_15 
ROOT
HETATM    1  O   UNL     1       8.178   1.863 -11.854  1.00  0.00    -0.328 OA
HETATM    2  C   UNL     1       7.007   3.508 -10.445  1.00  0.00     0.168 C 
HETATM    3  C   UNL     1       7.465   3.128 -11.874  1.00  0.00     0.166 C 
HETATM    4  C   UNL     1       6.253   2.342  -9.779  1.00  0.00     0.172 C 
HETATM    5  C   UNL     1       7.038   1.033  -9.861  1.00  0.00     0.197 C 
HETATM    6  C   UNL     1       7.443   0.780 -11.318  1.00  0.00     0.263 C 
ENDROOT
BRANCH   3   7
HETATM    7  C   UNL     1       8.461   4.109 -12.492  1.00  0.00     0.178 C 
BRANCH   7   8
HETATM    8  S   UNL     1       7.824   5.037 -13.850  1.00  0.00     0.118 S 
HETATM    9  O   UNL     1       7.631   4.014 -14.877  1.00  0.00    -0.594 OA
HETATM   10  O   UNL     1       6.591   5.603 -13.313  1.00  0.00    -0.594 OA
HETATM   11  O   UNL     1       8.881   6.003 -14.130  1.00  0.00    -0.594 OA
ENDBRANCH   7   8
ENDBRANCH   3   7
BRANCH   2  12
HETATM   12  O   UNL     1       6.099   4.611 -10.360  1.00  0.00    -0.380 OA
HETATM   13  H   UNL     1       6.612   5.454 -10.471  1.00  0.00     0.211 HD
ENDBRANCH   2  12
BRANCH   6  14
HETATM   14  O   UNL     1       6.291   0.524 -12.112  1.00  0.00    -0.359 OA
HETATM   15  H   UNL     1       6.533  -0.254 -12.645  1.00  0.00     0.213 HD
ENDBRANCH   6  14
BRANCH   4  16
HETATM   16  O   UNL     1       5.994   2.695  -8.407  1.00  0.00    -0.380 OA
HETATM   17  H   UNL     1       5.122   2.284  -8.226  1.00  0.00     0.211 HD
ENDBRANCH   4  16
BRANCH   5  18
HETATM   18  O   UNL     1       6.253  -0.074  -9.382  1.00  0.00    -0.378 OA
HETATM   19  H   UNL     1       5.436   0.328  -9.027  1.00  0.00     0.211 HD
ENDBRANCH   5  18
TORSDOF 6
ENDMDL
MODEL 3
REMARK VINA RESULT:    -5.038      1.585      2.627
REMARK INTER + INTRA:          -6.597
REMARK INTER:                  -6.407
REMARK INTRA:                  -0.190
REMARK UNBOUND:                -0.381
REMARK  6 active torsions:
REMARK  status: ('A' for Active; 'I' for Inactive)
REMARK    1  A    between atoms: S_1  and  C_15 
REMARK    2  A    between atoms: O_3  and  C_10 
REMARK    3  A    between atoms: O_4  and  C_12 
REMARK    4  A    between atoms: O_5  and  C_13 
REMARK    5  A    between atoms: O_6  and  C_14 
REMARK    6  A    between atoms: C_11  and  C_15 
ROOT
HETATM    1  O   UNL     1       7.544   0.694 -11.798  1.00  0.00    -0.328 OA
HETATM    2  C   UNL     1       6.244   2.239 -10.388  1.00  0.00     0.168 C 
HETATM    3  C   UNL     1       6.670   0.771 -10.640  1.00  0.00     0.166 C 
HETATM    4  C   UNL     1       7.471   3.169 -10.347  1.00  0.00     0.172 C 
HETATM    5  C   UNL     1       8.375   2.977 -11.565  1.00  0.00     0.197 C 
HETATM    6  C   UNL     1       8.710   1.488 -11.711  1.00  0.00     0.263 C 
ENDROOT
BRANCH   3   7
HETATM    7  C   UNL     1       5.511  -0.165 -10.983  1.00  0.00     0.178 C 
BRANCH   7   8
HETATM    8  S   UNL     1       5.593  -1.743 -10.200  1.00  0.00     0.118 S 
HETATM    9  O   UNL     1       6.683  -2.403 -10.918  1.00  0.00    -0.594 OA
HETATM   10  O   UNL     1       5.893  -1.408  -8.812  1.00  0.00    -0.594 OA
HETATM   11  O   UNL     1       4.269  -2.310 -10.431  1.00  0.00    -0.594 OA
ENDBRANCH   7   8
ENDBRANCH   3   7
BRANCH   2  12
HETATM   12  O   UNL     1       5.573   2.482  -9.148  1.00  0.00    -0.380 OA
HETATM   13  H   UNL     1       5.819   3.388  -8.825  1.00  0.00     0.211 HD
ENDBRANCH   2  12
BRANCH   6  14
HETATM   14  O   UNL     1       9.522   1.057 -10.626  1.00  0.00    -0.359 OA
HETATM   15  H   UNL     1       9.034   0.307 -10.243  1.00  0.00     0.213 HD
ENDBRANCH   6  14
BRANCH   4  16
HETATM   16  O   UNL     1       7.004   4.529 -10.269  1.00  0.00    -0.380 OA
HETATM   17  H   UNL     1       7.455   4.881  -9.472  1.00  0.00     0.211 HD
ENDBRANCH   4  16
BRANCH   5  18
HETATM   18  O   UNL     1       9.593   3.733 -11.430  1.00  0.00    -0.378 OA
HETATM   19  H   UNL     1      10.308   3.067 -11.447  1.00  0.00     0.211 HD
ENDBRANCH   5  18
TORSDOF 6
ENDMDL
MODEL 4
REMARK VINA RESULT:    -4.823      2.134      4.695
REMARK INTER + INTRA:          -6.331
REMARK INTER:                  -6.134
REMARK INTRA:                  -0.198
REMARK UNBOUND:                -0.381
REMARK  6 active torsions:
REMARK  status: ('A' for Active; 'I' for Inactive)
REMARK    1  A    between atoms: S_1  and  C_15 
REMARK    2  A    between atoms: O_3  and  C_10 
REMARK    3  A    between atoms: O_4  and  C_12 
REMARK    4  A    between atoms: O_5  and  C_13 
REMARK    5  A    between atoms: O_6  and  C_14 
REMARK    6  A    between atoms: C_11  and  C_15 
ROOT
HETATM    1  O   UNL     1       6.530   1.832 -11.246  1.00  0.00    -0.328 OA
HETATM    2  C   UNL     1       7.124  -0.117 -12.629  1.00  0.00     0.168 C 
HETATM    3  C   UNL     1       7.529   1.301 -12.158  1.00  0.00     0.166 C 
HETATM    4  C   UNL     1       6.786  -1.020 -11.429  1.00  0.00     0.172 C 
HETATM    5  C   UNL     1       5.782  -0.363 -10.482  1.00  0.00     0.197 C 
HETATM    6  C   UNL     1       6.290   1.034 -10.104  1.00  0.00     0.263 C 
ENDROOT
BRANCH   3   7
HETATM    7  C   UNL     1       7.597   2.336 -13.281  1.00  0.00     0.178 C 
BRANCH   7   8
HETATM    8  S   UNL     1       8.526   3.782 -12.885  1.00  0.00     0.118 S 
HETATM    9  O   UNL     1       9.230   4.066 -14.134  1.00  0.00    -0.594 OA
HETATM   10  O   UNL     1       7.494   4.752 -12.532  1.00  0.00    -0.594 OA
HETATM   11  O   UNL     1       9.376   3.351 -11.781  1.00  0.00    -0.594 OA
ENDBRANCH   7   8
ENDBRANCH   3   7
BRANCH   2  12
HETATM   12  O   UNL     1       8.130  -0.840 -13.345  1.00  0.00    -0.380 OA
HETATM   13  H   UNL     1       8.428  -1.606 -12.788  1.00  0.00     0.211 HD
ENDBRANCH   2  12
BRANCH   6  14
HETATM   14  O   UNL     1       7.470   0.933  -9.316  1.00  0.00    -0.359 OA
HETATM   15  H   UNL     1       7.232   0.310  -8.606  1.00  0.00     0.213 HD
ENDBRANCH   6  14
BRANCH   4  16
HETATM   16  O   UNL     1       6.269  -2.267 -11.933  1.00  0.00    -0.380 OA
HETATM   17  H   UNL     1       5.352  -2.043 -12.200  1.00  0.00     0.211 HD
ENDBRANCH   4  16
BRANCH   5  18
HETATM   18  O   UNL     1       5.603  -1.148  -9.289  1.00  0.00    -0.378 OA
HETATM   19  H   UNL     1       5.690  -0.513  -8.552  1.00  0.00     0.211 HD
ENDBRANCH   5  18
TORSDOF 6
ENDMDL
MODEL 5
REMARK VINA RESULT:    -4.816      1.907      3.328
REMARK INTER + INTRA:          -6.322
REMARK INTER:                  -5.847
REMARK INTRA:                  -0.475
REMARK UNBOUND:                -0.381
REMARK  6 active torsions:
REMARK  status: ('A' for Active; 'I' for Inactive)
REMARK    1  A    between atoms: S_1  and  C_15 
REMARK    2  A    between atoms: O_3  and  C_10 
REMARK    3  A    between atoms: O_4  and  C_12 
REMARK    4  A    between atoms: O_5  and  C_13 
REMARK    5  A    between atoms: O_6  and  C_14 
REMARK    6  A    between atoms: C_11  and  C_15 
ROOT
HETATM    1  O   UNL     1       7.045   3.069 -10.641  1.00  0.00    -0.328 OA
HETATM    2  C   UNL     1       7.981   1.721 -12.477  1.00  0.00     0.168 C 
HETATM    3  C   UNL     1       6.846   1.869 -11.435  1.00  0.00     0.166 C 
HETATM    4  C   UNL     1       8.160   3.019 -13.285  1.00  0.00     0.172 C 
HETATM    5  C   UNL     1       8.294   4.243 -12.380  1.00  0.00     0.197 C 
HETATM    6  C   UNL     1       7.123   4.266 -11.390  1.00  0.00     0.263 C 
ENDROOT
BRANCH   3   7
HETATM    7  C   UNL     1       6.795   0.743 -10.403  1.00  0.00     0.178 C 
BRANCH   7   8
HETATM    8  S   UNL     1       5.948  -0.706 -10.946  1.00  0.00     0.118 S 
HETATM    9  O   UNL     1       5.125  -0.204 -12.046  1.00  0.00    -0.594 OA
HETATM   10  O   UNL     1       7.035  -1.591 -11.352  1.00  0.00    -0.594 OA
HETATM   11  O   UNL     1       5.206  -1.133  -9.765  1.00  0.00    -0.594 OA
ENDBRANCH   7   8
ENDBRANCH   3   7
BRANCH   2  12
HETATM   12  O   UNL     1       7.780   0.710 -13.469  1.00  0.00    -0.380 OA
HETATM   13  H   UNL     1       8.596   0.148 -13.521  1.00  0.00     0.211 HD
ENDBRANCH   2  12
BRANCH   6  14
HETATM   14  O   UNL     1       5.900   4.497 -12.079  1.00  0.00    -0.359 OA
HETATM   15  H   UNL     1       5.823   3.745 -12.692  1.00  0.00     0.213 HD
ENDBRANCH   6  14
BRANCH   4  16
HETATM   16  O   UNL     1       9.324   2.875 -14.121  1.00  0.00    -0.380 OA
HETATM   17  H   UNL     1       9.774   3.742 -14.038  1.00  0.00     0.211 HD
ENDBRANCH   4  16
BRANCH   5  18
HETATM   18  O   UNL     1       8.296   5.460 -13.149  1.00  0.00    -0.378 OA
HETATM   19  H   UNL     1       7.646   6.040 -12.708  1.00  0.00     0.211 HD
ENDBRANCH   5  18
TORSDOF 6
ENDMDL
MODEL 6
REMARK VINA RESULT:    -4.801      2.224      4.782
REMARK INTER + INTRA:          -6.304
REMARK INTER:                  -5.892
REMARK INTRA:                  -0.412
REMARK UNBOUND:                -0.381
REMARK  6 active torsions:
REMARK  status: ('A' for Active; 'I' for Inactive)
REMARK    1  A    between atoms: S_1  and  C_15 
REMARK    2  A    between atoms: O_3  and  C_10 
REMARK    3  A    between atoms: O_4  and  C_12 
REMARK    4  A    between atoms: O_5  and  C_13 
REMARK    5  A    between atoms: O_6  and  C_14 
REMARK    6  A    between atoms: C_11  and  C_15 
ROOT
HETATM    1  O   UNL     1       8.245   0.391 -12.488  1.00  0.00    -0.328 OA
HETATM    2  C   UNL     1       7.180   0.928 -10.334  1.00  0.00     0.168 C 
HETATM    3  C   UNL     1       7.738   1.478 -11.669  1.00  0.00     0.166 C 
HETATM    4  C   UNL     1       6.188  -0.223 -10.584  1.00  0.00     0.172 C 
HETATM    5  C   UNL     1       6.771  -1.291 -11.509  1.00  0.00     0.197 C 
HETATM    6  C   UNL     1       7.299  -0.618 -12.781  1.00  0.00     0.263 C 
ENDROOT
BRANCH   3   7
HETATM    7  C   UNL     1       8.936   2.414 -11.506  1.00  0.00     0.178 C 
BRANCH   7   8
HETATM    8  S   UNL     1       8.567   4.121 -11.758  1.00  0.00     0.118 S 
HETATM    9  O   UNL     1       7.909   4.119 -13.064  1.00  0.00    -0.594 OA
HETATM   10  O   UNL     1       7.691   4.438 -10.634  1.00  0.00    -0.594 OA
HETATM   11  O   UNL     1       9.876   4.763 -11.726  1.00  0.00    -0.594 OA
ENDBRANCH   7   8
ENDBRANCH   3   7
BRANCH   2  12
HETATM   12  O   UNL     1       6.445   1.864  -9.539  1.00  0.00    -0.380 OA
HETATM   13  H   UNL     1       5.560   2.015  -9.963  1.00  0.00     0.211 HD
ENDBRANCH   2  12
BRANCH   6  14
HETATM   14  O   UNL     1       6.221  -0.079 -13.537  1.00  0.00    -0.359 OA
HETATM   15  H   UNL     1       5.493   0.002 -12.895  1.00  0.00     0.213 HD
ENDBRANCH   6  14
BRANCH   4  16
HETATM   16  O   UNL     1       5.827  -0.794  -9.311  1.00  0.00    -0.380 OA
HETATM   17  H   UNL     1       6.637  -1.274  -9.038  1.00  0.00     0.211 HD
ENDBRANCH   4  16
BRANCH   5  18
HETATM   18  O   UNL     1       5.777  -2.271 -11.861  1.00  0.00    -0.378 OA
HETATM   19  H   UNL     1       5.951  -3.031 -11.273  1.00  0.00     0.211 HD
ENDBRANCH   5  18
TORSDOF 6
ENDMDL
MODEL 7
REMARK VINA RESULT:    -4.764     23.275     25.206
REMARK INTER + INTRA:          -6.258
REMARK INTER:                  -5.846
REMARK INTRA:                  -0.413
REMARK UNBOUND:                -0.381
REMARK  6 active torsions:
REMARK  status: ('A' for Active; 'I' for Inactive)
REMARK    1  A    between atoms: S_1  and  C_15 
REMARK    2  A    between atoms: O_3  and  C_10 
REMARK    3  A    between atoms: O_4  and  C_12 
REMARK    4  A    between atoms: O_5  and  C_13 
REMARK    5  A    between atoms: O_6  and  C_14 
REMARK    6  A    between atoms: C_11  and  C_15 
ROOT
HETATM    1  O   UNL     1      11.671  20.460 -28.447  1.00  0.00    -0.328 OA
HETATM    2  C   UNL     1      10.634  18.228 -28.388  1.00  0.00     0.168 C 
HETATM    3  C   UNL     1      11.213  19.403 -27.563  1.00  0.00     0.166 C 
HETATM    4  C   UNL     1       9.591  18.730 -29.404  1.00  0.00     0.172 C 
HETATM    5  C   UNL     1      10.126  19.887 -30.248  1.00  0.00     0.197 C 
HETATM    6  C   UNL     1      10.681  20.972 -29.317  1.00  0.00     0.263 C 
ENDROOT
BRANCH   3   7
HETATM    7  C   UNL     1      12.451  19.038 -26.743  1.00  0.00     0.178 C 
BRANCH   7   8
HETATM    8  S   UNL     1      12.123  18.679 -25.048  1.00  0.00     0.118 S 
HETATM    9  O   UNL     1      11.439  17.388 -25.119  1.00  0.00    -0.594 OA
HETATM   10  O   UNL     1      13.456  18.631 -24.456  1.00  0.00    -0.594 OA
HETATM   11  O   UNL     1      11.290  19.796 -24.616  1.00  0.00    -0.594 OA
ENDBRANCH   7   8
ENDBRANCH   3   7
BRANCH   2  12
HETATM   12  O   UNL     1       9.942  17.227 -27.635  1.00  0.00    -0.380 OA
HETATM   13  H   UNL     1       8.979  17.259 -27.873  1.00  0.00     0.211 HD
ENDBRANCH   2  12
BRANCH   6  14
HETATM   14  O   UNL     1       9.627  21.567 -28.570  1.00  0.00    -0.359 OA
HETATM   15  H   UNL     1       8.943  21.764 -29.235  1.00  0.00     0.213 HD
ENDBRANCH   6  14
BRANCH   4  16
HETATM   16  O   UNL     1       9.208  17.623 -30.243  1.00  0.00    -0.380 OA
HETATM   17  H   UNL     1       8.554  18.018 -30.858  1.00  0.00     0.211 HD
ENDBRANCH   4  16
BRANCH   5  18
HETATM   18  O   UNL     1       9.089  20.448 -31.075  1.00  0.00    -0.378 OA
HETATM   19  H   UNL     1       9.328  21.389 -31.177  1.00  0.00     0.211 HD
ENDBRANCH   5  18
TORSDOF 6
ENDMDL
MODEL 8
REMARK VINA RESULT:    -4.555      1.888      2.929
REMARK INTER + INTRA:          -6.001
REMARK INTER:                  -6.527
REMARK INTRA:                   0.526
REMARK UNBOUND:                -0.381
REMARK  6 active torsions:
REMARK  status: ('A' for Active; 'I' for Inactive)
REMARK    1  A    between atoms: S_1  and  C_15 
REMARK    2  A    between atoms: O_3  and  C_10 
REMARK    3  A    between atoms: O_4  and  C_12 
REMARK    4  A    between atoms: O_5  and  C_13 
REMARK    5  A    between atoms: O_6  and  C_14 
REMARK    6  A    between atoms: C_11  and  C_15 
ROOT
HETATM    1  O   UNL     1       8.316   2.491 -12.499  1.00  0.00    -0.328 OA
HETATM    2  C   UNL     1       6.478   3.135 -10.991  1.00  0.00     0.168 C 
HETATM    3  C   UNL     1       7.885   2.498 -11.112  1.00  0.00     0.166 C 
HETATM    4  C   UNL     1       6.430   4.501 -11.700  1.00  0.00     0.172 C 
HETATM    5  C   UNL     1       6.964   4.424 -13.130  1.00  0.00     0.197 C 
HETATM    6  C   UNL     1       8.348   3.764 -13.114  1.00  0.00     0.263 C 
ENDROOT
BRANCH   3   7
HETATM    7  C   UNL     1       7.942   1.028 -10.696  1.00  0.00     0.178 C 
BRANCH   7   8
HETATM    8  S   UNL     1       6.423   0.154 -10.898  1.00  0.00     0.118 S 
HETATM    9  O   UNL     1       5.925   0.665 -12.175  1.00  0.00    -0.594 OA
HETATM   10  O   UNL     1       6.847  -1.243 -10.925  1.00  0.00    -0.594 OA
HETATM   11  O   UNL     1       5.644   0.545  -9.729  1.00  0.00    -0.594 OA
ENDBRANCH   7   8
ENDBRANCH   3   7
BRANCH   2  12
HETATM   12  O   UNL     1       6.039   3.410  -9.658  1.00  0.00    -0.380 OA
HETATM   13  H   UNL     1       5.570   2.609  -9.305  1.00  0.00     0.211 HD
ENDBRANCH   2  12
BRANCH   6  14
HETATM   14  O   UNL     1       9.287   4.606 -12.456  1.00  0.00    -0.359 OA
HETATM   15  H   UNL     1       9.875   4.914 -13.168  1.00  0.00     0.213 HD
ENDBRANCH   6  14
BRANCH   4  16
HETATM   16  O   UNL     1       5.067   4.968 -11.690  1.00  0.00    -0.380 OA
HETATM   17  H   UNL     1       4.600   4.299 -11.146  1.00  0.00     0.211 HD
ENDBRANCH   4  16
BRANCH   5  18
HETATM   18  O   UNL     1       7.063   5.734 -13.718  1.00  0.00    -0.378 OA
HETATM   19  H   UNL     1       7.861   6.132 -13.319  1.00  0.00     0.211 HD
ENDBRANCH   5  18
TORSDOF 6
ENDMDL
MODEL 9
REMARK VINA RESULT:    -4.502      2.295      3.996
REMARK INTER + INTRA:          -5.936
REMARK INTER:                  -5.529
REMARK INTRA:                  -0.407
REMARK UNBOUND:                -0.381
REMARK  6 active torsions:
REMARK  status: ('A' for Active; 'I' for Inactive)
REMARK    1  A    between atoms: S_1  and  C_15 
REMARK    2  A    between atoms: O_3  and  C_10 
REMARK    3  A    between atoms: O_4  and  C_12 
REMARK    4  A    between atoms: O_5  and  C_13 
REMARK    5  A    between atoms: O_6  and  C_14 
REMARK    6  A    between atoms: C_11  and  C_15 
ROOT
HETATM    1  O   UNL     1       7.714   1.321 -11.507  1.00  0.00    -0.328 OA
HETATM    2  C   UNL     1       7.350  -0.994 -12.264  1.00  0.00     0.168 C 
HETATM    3  C   UNL     1       8.384   0.126 -11.990  1.00  0.00     0.166 C 
HETATM    4  C   UNL     1       6.430  -1.205 -11.048  1.00  0.00     0.172 C 
HETATM    5  C   UNL     1       5.819   0.108 -10.558  1.00  0.00     0.197 C 
HETATM    6  C   UNL     1       6.940   1.132 -10.339  1.00  0.00     0.263 C 
ENDROOT
BRANCH   3   7
HETATM    7  C   UNL     1       9.138   0.597 -13.234  1.00  0.00     0.178 C 
BRANCH   7   8
HETATM    8  S   UNL     1      10.822   0.077 -13.305  1.00  0.00     0.118 S 
HETATM    9  O   UNL     1      10.709  -1.381 -13.325  1.00  0.00    -0.594 OA
HETATM   10  O   UNL     1      11.298   0.669 -14.551  1.00  0.00    -0.594 OA
HETATM   11  O   UNL     1      11.404   0.635 -12.089  1.00  0.00    -0.594 OA
ENDBRANCH   7   8
ENDBRANCH   3   7
BRANCH   2  12
HETATM   12  O   UNL     1       7.899  -2.290 -12.523  1.00  0.00    -0.380 OA
HETATM   13  H   UNL     1       7.323  -2.752 -13.187  1.00  0.00     0.211 HD
ENDBRANCH   2  12
BRANCH   6  14
HETATM   14  O   UNL     1       7.770   0.730  -9.256  1.00  0.00    -0.359 OA
HETATM   15  H   UNL     1       8.653   0.629  -9.654  1.00  0.00     0.213 HD
ENDBRANCH   6  14
BRANCH   4  16
HETATM   16  O   UNL     1       5.398  -2.139 -11.417  1.00  0.00    -0.380 OA
HETATM   17  H   UNL     1       5.892  -2.968 -11.592  1.00  0.00     0.211 HD
ENDBRANCH   4  16
BRANCH   5  18
HETATM   18  O   UNL     1       5.097  -0.083  -9.327  1.00  0.00    -0.378 OA
HETATM   19  H   UNL     1       4.525  -0.859  -9.487  1.00  0.00     0.211 HD
ENDBRANCH   5  18
TORSDOF 6
ENDMDL
MODEL 10
REMARK VINA RESULT:    -4.480     16.848     19.117
REMARK INTER + INTRA:          -5.908
REMARK INTER:                  -5.427
REMARK INTRA:                  -0.481
REMARK UNBOUND:                -0.381
REMARK  6 active torsions:
REMARK  status: ('A' for Active; 'I' for Inactive)
REMARK    1  A    between atoms: S_1  and  C_15 
REMARK    2  A    between atoms: O_3  and  C_10 
REMARK    3  A    between atoms: O_4  and  C_12 
REMARK    4  A    between atoms: O_5  and  C_13 
REMARK    5  A    between atoms: O_6  and  C_14 
REMARK    6  A    between atoms: C_11  and  C_15 
ROOT
HETATM    1  O   UNL     1       8.202 -16.532  -6.972  1.00  0.00    -0.328 OA
HETATM    2  C   UNL     1       9.056 -17.173  -4.753  1.00  0.00     0.168 C 
HETATM    3  C   UNL     1       8.792 -16.017  -5.749  1.00  0.00     0.166 C 
HETATM    4  C   UNL     1       7.794 -18.033  -4.560  1.00  0.00     0.172 C 
HETATM    5  C   UNL     1       7.195 -18.478  -5.894  1.00  0.00     0.197 C 
HETATM    6  C   UNL     1       6.997 -17.249  -6.790  1.00  0.00     0.263 C 
ENDROOT
BRANCH   3   7
HETATM    7  C   UNL     1      10.056 -15.296  -6.218  1.00  0.00     0.178 C 
BRANCH   7   8
HETATM    8  S   UNL     1      10.654 -14.071  -5.099  1.00  0.00     0.118 S 
HETATM    9  O   UNL     1       9.449 -13.692  -4.362  1.00  0.00    -0.594 OA
HETATM   10  O   UNL     1      11.646 -14.797  -4.313  1.00  0.00    -0.594 OA
HETATM   11  O   UNL     1      11.192 -13.038  -5.977  1.00  0.00    -0.594 OA
ENDBRANCH   7   8
ENDBRANCH   3   7
BRANCH   2  12
HETATM   12  O   UNL     1       9.420 -16.774  -3.428  1.00  0.00    -0.380 OA
HETATM   13  H   UNL     1      10.153 -17.363  -3.108  1.00  0.00     0.211 HD
ENDBRANCH   2  12
BRANCH   6  14
HETATM   14  O   UNL     1       5.995 -16.399  -6.245  1.00  0.00    -0.359 OA
HETATM   15  H   UNL     1       5.937 -16.664  -5.309  1.00  0.00     0.213 HD
ENDBRANCH   6  14
BRANCH   4  16
HETATM   16  O   UNL     1       8.144 -19.175  -3.754  1.00  0.00    -0.380 OA
HETATM   17  H   UNL     1       9.106 -19.279  -3.910  1.00  0.00     0.211 HD
ENDBRANCH   4  16
BRANCH   5  18
HETATM   18  O   UNL     1       5.932 -19.140  -5.701  1.00  0.00    -0.378 OA
HETATM   19  H   UNL     1       5.703 -19.510  -6.575  1.00  0.00     0.211 HD
ENDBRANCH   5  18
TORSDOF 6
ENDMDL
MODEL 11
REMARK VINA RESULT:    -4.457     22.808     24.992
REMARK INTER + INTRA:          -5.880
REMARK INTER:                  -5.445
REMARK INTRA:                  -0.435
REMARK UNBOUND:                -0.381
REMARK  6 active torsions:
REMARK  status: ('A' for Active; 'I' for Inactive)
REMARK    1  A    between atoms: S_1  and  C_15 
REMARK    2  A    between atoms: O_3  and  C_10 
REMARK    3  A    between atoms: O_4  and  C_12 
REMARK    4  A    between atoms: O_5  and  C_13 
REMARK    5  A    between atoms: O_6  and  C_14 
REMARK    6  A    between atoms: C_11  and  C_15 
ROOT
HETATM    1  O   UNL     1      12.427  20.363 -27.176  1.00  0.00    -0.328 OA
HETATM    2  C   UNL     1      12.363  19.557 -24.850  1.00  0.00     0.168 C 
HETATM    3  C   UNL     1      12.054  20.724 -25.819  1.00  0.00     0.166 C 
HETATM    4  C   UNL     1      11.760  18.238 -25.366  1.00  0.00     0.172 C 
HETATM    5  C   UNL     1      12.142  17.964 -26.821  1.00  0.00     0.197 C 
HETATM    6  C   UNL     1      11.800  19.195 -27.669  1.00  0.00     0.263 C 
ENDROOT
BRANCH   3   7
HETATM    7  C   UNL     1      12.853  21.997 -25.538  1.00  0.00     0.178 C 
BRANCH   7   8
HETATM    8  S   UNL     1      12.035  23.153 -24.486  1.00  0.00     0.118 S 
HETATM    9  O   UNL     1      12.648  24.425 -24.868  1.00  0.00    -0.594 OA
HETATM   10  O   UNL     1      10.633  23.013 -24.868  1.00  0.00    -0.594 OA
HETATM   11  O   UNL     1      12.364  22.687 -23.144  1.00  0.00    -0.594 OA
ENDBRANCH   7   8
ENDBRANCH   3   7
BRANCH   2  12
HETATM   12  O   UNL     1      11.833  19.696 -23.528  1.00  0.00    -0.380 OA
HETATM   13  H   UNL     1      11.650  20.657 -23.358  1.00  0.00     0.211 HD
ENDBRANCH   2  12
BRANCH   6  14
HETATM   14  O   UNL     1      10.391  19.378 -27.727  1.00  0.00    -0.359 OA
HETATM   15  H   UNL     1      10.207  20.047 -27.044  1.00  0.00     0.213 HD
ENDBRANCH   6  14
BRANCH   4  16
HETATM   16  O   UNL     1      12.212  17.169 -24.512  1.00  0.00    -0.380 OA
HETATM   17  H   UNL     1      11.606  17.220 -23.743  1.00  0.00     0.211 HD
ENDBRANCH   4  16
BRANCH   5  18
HETATM   18  O   UNL     1      11.441  16.817 -27.335  1.00  0.00    -0.378 OA
HETATM   19  H   UNL     1      12.031  16.059 -27.158  1.00  0.00     0.211 HD
ENDBRANCH   5  18
TORSDOF 6
ENDMDL
MODEL 12
REMARK VINA RESULT:    -4.424     34.508     36.042
REMARK INTER + INTRA:          -5.839
REMARK INTER:                  -5.425
REMARK INTRA:                  -0.414
REMARK UNBOUND:                -0.381
REMARK  6 active torsions:
REMARK  status: ('A' for Active; 'I' for Inactive)
REMARK    1  A    between atoms: S_1  and  C_15 
REMARK    2  A    between atoms: O_3  and  C_10 
REMARK    3  A    between atoms: O_4  and  C_12 
REMARK    4  A    between atoms: O_5  and  C_13 
REMARK    5  A    between atoms: O_6  and  C_14 
REMARK    6  A    between atoms: C_11  and  C_15 
ROOT
HETATM    1  O   UNL     1     -14.432 -11.091  14.614  1.00  0.00    -0.328 OA
HETATM    2  C   UNL     1     -15.919  -9.292  15.399  1.00  0.00     0.168 C 
HETATM    3  C   UNL     1     -14.467  -9.825  15.324  1.00  0.00     0.166 C 
HETATM    4  C   UNL     1     -16.574  -9.280  14.006  1.00  0.00     0.172 C 
HETATM    5  C   UNL     1     -16.435 -10.627  13.297  1.00  0.00     0.197 C 
HETATM    6  C   UNL     1     -14.960 -11.047  13.303  1.00  0.00     0.263 C 
ENDROOT
BRANCH   3   7
HETATM    7  C   UNL     1     -13.847 -10.142  16.685  1.00  0.00     0.178 C 
BRANCH   7   8
HETATM    8  S   UNL     1     -12.856  -8.846  17.355  1.00  0.00     0.118 S 
HETATM    9  O   UNL     1     -13.828  -8.054  18.108  1.00  0.00    -0.594 OA
HETATM   10  O   UNL     1     -11.886  -9.562  18.176  1.00  0.00    -0.594 OA
HETATM   11  O   UNL     1     -12.307  -8.189  16.174  1.00  0.00    -0.594 OA
ENDBRANCH   7   8
ENDBRANCH   3   7
BRANCH   2  12
HETATM   12  O   UNL     1     -16.059  -7.948  15.869  1.00  0.00    -0.380 OA
HETATM   13  H   UNL     1     -15.761  -7.909  16.815  1.00  0.00     0.211 HD
ENDBRANCH   2  12
BRANCH   6  14
HETATM   14  O   UNL     1     -14.194 -10.166  12.491  1.00  0.00    -0.359 OA
HETATM   15  H   UNL     1     -13.878 -10.725  11.759  1.00  0.00     0.213 HD
ENDBRANCH   6  14
BRANCH   4  16
HETATM   16  O   UNL     1     -17.962  -8.929  14.162  1.00  0.00    -0.380 OA
HETATM   17  H   UNL     1     -17.964  -7.954  14.060  1.00  0.00     0.211 HD
ENDBRANCH   4  16
BRANCH   5  18
HETATM   18  O   UNL     1     -16.906 -10.550  11.939  1.00  0.00    -0.378 OA
HETATM   19  H   UNL     1     -16.648 -11.399  11.532  1.00  0.00     0.211 HD
ENDBRANCH   5  18
TORSDOF 6
ENDMDL
MODEL 13
REMARK VINA RESULT:    -4.411     12.697     13.851
REMARK INTER + INTRA:          -5.823
REMARK INTER:                  -5.367
REMARK INTRA:                  -0.457
REMARK UNBOUND:                -0.381
REMARK  6 active torsions:
REMARK  status: ('A' for Active; 'I' for Inactive)
REMARK    1  A    between atoms: S_1  and  C_15 
REMARK    2  A    between atoms: O_3  and  C_10 
REMARK    3  A    between atoms: O_4  and  C_12 
REMARK    4  A    between atoms: O_5  and  C_13 
REMARK    5  A    between atoms: O_6  and  C_14 
REMARK    6  A    between atoms: C_11  and  C_15 
ROOT
HETATM    1  O   UNL     1      -2.220   8.993  -9.882  1.00  0.00    -0.328 OA
HETATM    2  C   UNL     1      -2.464  11.113 -11.111  1.00  0.00     0.168 C 
HETATM    3  C   UNL     1      -3.058   9.712 -10.826  1.00  0.00     0.166 C 
HETATM    4  C   UNL     1      -2.164  11.861  -9.799  1.00  0.00     0.172 C 
HETATM    5  C   UNL     1      -1.338  11.013  -8.832  1.00  0.00     0.197 C 
HETATM    6  C   UNL     1      -2.021   9.653  -8.648  1.00  0.00     0.263 C 
ENDROOT
BRANCH   3   7
HETATM    7  C   UNL     1      -3.112   8.797 -12.050  1.00  0.00     0.178 C 
BRANCH   7   8
HETATM    8  S   UNL     1      -4.432   9.151 -13.166  1.00  0.00     0.118 S 
HETATM    9  O   UNL     1      -5.458   9.708 -12.285  1.00  0.00    -0.594 OA
HETATM   10  O   UNL     1      -3.835  10.109 -14.090  1.00  0.00    -0.594 OA
HETATM   11  O   UNL     1      -4.752   7.849 -13.741  1.00  0.00    -0.594 OA
ENDBRANCH   7   8
ENDBRANCH   3   7
BRANCH   2  12
HETATM   12  O   UNL     1      -3.311  12.006 -11.842  1.00  0.00    -0.380 OA
HETATM   13  H   UNL     1      -3.782  11.490 -12.547  1.00  0.00     0.211 HD
ENDBRANCH   2  12
BRANCH   6  14
HETATM   14  O   UNL     1      -3.261   9.813  -7.969  1.00  0.00    -0.359 OA
HETATM   15  H   UNL     1      -3.096   9.458  -7.078  1.00  0.00     0.213 HD
ENDBRANCH   6  14
BRANCH   4  16
HETATM   16  O   UNL     1      -1.472  13.083 -10.122  1.00  0.00    -0.380 OA
HETATM   17  H   UNL     1      -0.653  13.031  -9.586  1.00  0.00     0.211 HD
ENDBRANCH   4  16
BRANCH   5  18
HETATM   18  O   UNL     1      -1.206  11.662  -7.554  1.00  0.00    -0.378 OA
HETATM   19  H   UNL     1      -1.462  10.985  -6.898  1.00  0.00     0.211 HD
ENDBRANCH   5  18
TORSDOF 6
ENDMDL
MODEL 14
REMARK VINA RESULT:    -4.396      3.126      4.772
REMARK INTER + INTRA:          -5.804
REMARK INTER:                  -5.417
REMARK INTRA:                  -0.387
REMARK UNBOUND:                -0.381
REMARK  6 active torsions:
REMARK  status: ('A' for Active; 'I' for Inactive)
REMARK    1  A    between atoms: S_1  and  C_15 
REMARK    2  A    between atoms: O_3  and  C_10 
REMARK    3  A    between atoms: O_4  and  C_12 
REMARK    4  A    between atoms: O_5  and  C_13 
REMARK    5  A    between atoms: O_6  and  C_14 
REMARK    6  A    between atoms: C_11  and  C_15 
ROOT
HETATM    1  O   UNL     1       7.929   3.038 -14.487  1.00  0.00    -0.328 OA
HETATM    2  C   UNL     1       8.779   4.468 -12.671  1.00  0.00     0.168 C 
HETATM    3  C   UNL     1       8.624   3.025 -13.211  1.00  0.00     0.166 C 
HETATM    4  C   UNL     1       9.387   5.395 -13.740  1.00  0.00     0.172 C 
HETATM    5  C   UNL     1       8.642   5.299 -15.071  1.00  0.00     0.197 C 
HETATM    6  C   UNL     1       8.544   3.825 -15.487  1.00  0.00     0.263 C 
ENDROOT
BRANCH   3   7
HETATM    7  C   UNL     1       7.769   2.117 -12.328  1.00  0.00     0.178 C 
BRANCH   7   8
HETATM    8  S   UNL     1       8.689   0.951 -11.376  1.00  0.00     0.118 S 
HETATM    9  O   UNL     1       9.062  -0.054 -12.370  1.00  0.00    -0.594 OA
HETATM   10  O   UNL     1       9.801   1.746 -10.865  1.00  0.00    -0.594 OA
HETATM   11  O   UNL     1       7.733   0.501 -10.370  1.00  0.00    -0.594 OA
ENDBRANCH   7   8
ENDBRANCH   3   7
BRANCH   2  12
HETATM   12  O   UNL     1       9.644   4.614 -11.541  1.00  0.00    -0.380 OA
HETATM   13  H   UNL     1       9.177   5.152 -10.850  1.00  0.00     0.211 HD
ENDBRANCH   2  12
BRANCH   6  14
HETATM   14  O   UNL     1       9.836   3.314 -15.793  1.00  0.00    -0.359 OA
HETATM   15  H   UNL     1       9.971   3.545 -16.729  1.00  0.00     0.213 HD
ENDBRANCH   6  14
BRANCH   4  16
HETATM   16  O   UNL     1       9.359   6.744 -13.238  1.00  0.00    -0.380 OA
HETATM   17  H   UNL     1      10.181   7.139 -13.598  1.00  0.00     0.211 HD
ENDBRANCH   4  16
BRANCH   5  18
HETATM   18  O   UNL     1       9.320   6.043 -16.100  1.00  0.00    -0.378 OA
HETATM   19  H   UNL     1       8.635   6.623 -16.487  1.00  0.00     0.211 HD
ENDBRANCH   5  18
TORSDOF 6
ENDMDL
MODEL 15
REMARK VINA RESULT:    -4.367      2.877      4.645
REMARK INTER + INTRA:          -5.769
REMARK INTER:                  -5.387
REMARK INTRA:                  -0.382
REMARK UNBOUND:                -0.381
REMARK  6 active torsions:
REMARK  status: ('A' for Active; 'I' for Inactive)
REMARK    1  A    between atoms: S_1  and  C_15 
REMARK    2  A    between atoms: O_3  and  C_10 
REMARK    3  A    between atoms: O_4  and  C_12 
REMARK    4  A    between atoms: O_5  and  C_13 
REMARK    5  A    between atoms: O_6  and  C_14 
REMARK    6  A    between atoms: C_11  and  C_15 
ROOT
HETATM    1  O   UNL     1       8.029   4.598 -12.266  1.00  0.00    -0.328 OA
HETATM    2  C   UNL     1       8.579   2.637 -13.649  1.00  0.00     0.168 C 
HETATM    3  C   UNL     1       7.665   3.219 -12.543  1.00  0.00     0.166 C 
HETATM    4  C   UNL     1       8.616   3.564 -14.878  1.00  0.00     0.172 C 
HETATM    5  C   UNL     1       8.937   5.009 -14.495  1.00  0.00     0.197 C 
HETATM    6  C   UNL     1       7.977   5.459 -13.387  1.00  0.00     0.263 C 
ENDROOT
BRANCH   3   7
HETATM    7  C   UNL     1       7.799   2.519 -11.190  1.00  0.00     0.178 C 
BRANCH   7   8
HETATM    8  S   UNL     1       6.471   1.424 -10.803  1.00  0.00     0.118 S 
HETATM    9  O   UNL     1       7.077   0.514  -9.833  1.00  0.00    -0.594 OA
HETATM   10  O   UNL     1       5.457   2.317 -10.251  1.00  0.00    -0.594 OA
HETATM   11  O   UNL     1       6.136   0.823 -12.089  1.00  0.00    -0.594 OA
ENDBRANCH   7   8
ENDBRANCH   3   7
BRANCH   2  12
HETATM   12  O   UNL     1       8.178   1.367 -14.175  1.00  0.00    -0.380 OA
HETATM   13  H   UNL     1       8.869   1.056 -14.816  1.00  0.00     0.211 HD
ENDBRANCH   2  12
BRANCH   6  14
HETATM   14  O   UNL     1       6.648   5.537 -13.888  1.00  0.00    -0.359 OA
HETATM   15  H   UNL     1       6.714   5.202 -14.800  1.00  0.00     0.213 HD
ENDBRANCH   6  14
BRANCH   4  16
HETATM   16  O   UNL     1       9.597   3.053 -15.801  1.00  0.00    -0.380 OA
HETATM   17  H   UNL     1       9.967   3.862 -16.212  1.00  0.00     0.211 HD
ENDBRANCH   4  16
BRANCH   5  18
HETATM   18  O   UNL     1       8.807   5.887 -15.628  1.00  0.00    -0.378 OA
HETATM   19  H   UNL     1       9.585   5.697 -16.187  1.00  0.00     0.211 HD
ENDBRANCH   5  18
TORSDOF 6
ENDMDL
MODEL 16
REMARK VINA RESULT:    -4.331      2.060      3.518
REMARK INTER + INTRA:          -5.725
REMARK INTER:                  -5.339
REMARK INTRA:                  -0.386
REMARK UNBOUND:                -0.381
REMARK  6 active torsions:
REMARK  status: ('A' for Active; 'I' for Inactive)
REMARK    1  A    between atoms: S_1  and  C_15 
REMARK    2  A    between atoms: O_3  and  C_10 
REMARK    3  A    between atoms: O_4  and  C_12 
REMARK    4  A    between atoms: O_5  and  C_13 
REMARK    5  A    between atoms: O_6  and  C_14 
REMARK    6  A    between atoms: C_11  and  C_15 
ROOT
HETATM    1  O   UNL     1       8.115   0.928 -10.178  1.00  0.00    -0.328 OA
HETATM    2  C   UNL     1       7.836   2.915 -11.606  1.00  0.00     0.168 C 
HETATM    3  C   UNL     1       8.242   1.422 -11.539  1.00  0.00     0.166 C 
HETATM    4  C   UNL     1       6.461   3.142 -10.951  1.00  0.00     0.172 C 
HETATM    5  C   UNL     1       6.386   2.534  -9.551  1.00  0.00     0.197 C 
HETATM    6  C   UNL     1       6.824   1.065  -9.618  1.00  0.00     0.263 C 
ENDROOT
BRANCH   3   7
HETATM    7  C   UNL     1       9.703   1.155 -11.898  1.00  0.00     0.178 C 
BRANCH   7   8
HETATM    8  S   UNL     1       9.970   0.720 -13.587  1.00  0.00     0.118 S 
HETATM    9  O   UNL     1      11.369   0.295 -13.593  1.00  0.00    -0.594 OA
HETATM   10  O   UNL     1       9.006  -0.352 -13.808  1.00  0.00    -0.594 OA
HETATM   11  O   UNL     1       9.699   1.960 -14.307  1.00  0.00    -0.594 OA
ENDBRANCH   7   8
ENDBRANCH   3   7
BRANCH   2  12
HETATM   12  O   UNL     1       7.696   3.457 -12.923  1.00  0.00    -0.380 OA
HETATM   13  H   UNL     1       7.391   2.735 -13.533  1.00  0.00     0.211 HD
ENDBRANCH   2  12
BRANCH   6  14
HETATM   14  O   UNL     1       5.880   0.303 -10.361  1.00  0.00    -0.359 OA
HETATM   15  H   UNL     1       6.086   0.505 -11.291  1.00  0.00     0.213 HD
ENDBRANCH   6  14
BRANCH   4  16
HETATM   16  O   UNL     1       6.212   4.560 -10.904  1.00  0.00    -0.380 OA
HETATM   17  H   UNL     1       5.929   4.773 -11.818  1.00  0.00     0.211 HD
ENDBRANCH   4  16
BRANCH   5  18
HETATM   18  O   UNL     1       5.050   2.612  -9.022  1.00  0.00    -0.378 OA
HETATM   19  H   UNL     1       4.570   1.867  -9.433  1.00  0.00     0.211 HD
ENDBRANCH   5  18
TORSDOF 6
ENDMDL
MODEL 17
REMARK VINA RESULT:    -4.322      1.895      2.713
REMARK INTER + INTRA:          -5.714
REMARK INTER:                  -5.252
REMARK INTRA:                  -0.462
REMARK UNBOUND:                -0.381
REMARK  6 active torsions:
REMARK  status: ('A' for Active; 'I' for Inactive)
REMARK    1  A    between atoms: S_1  and  C_15 
REMARK    2  A    between atoms: O_3  and  C_10 
REMARK    3  A    between atoms: O_4  and  C_12 
REMARK    4  A    between atoms: O_5  and  C_13 
REMARK    5  A    between atoms: O_6  and  C_14 
REMARK    6  A    between atoms: C_11  and  C_15 
ROOT
HETATM    1  O   UNL     1       7.211   1.194 -12.352  1.00  0.00    -0.328 OA
HETATM    2  C   UNL     1       5.732  -0.660 -11.687  1.00  0.00     0.168 C 
HETATM    3  C   UNL     1       6.872  -0.192 -12.624  1.00  0.00     0.166 C 
HETATM    4  C   UNL     1       6.063  -0.343 -10.217  1.00  0.00     0.172 C 
HETATM    5  C   UNL     1       6.476   1.116 -10.025  1.00  0.00     0.197 C 
HETATM    6  C   UNL     1       7.595   1.456 -11.017  1.00  0.00     0.263 C 
ENDROOT
BRANCH   3   7
HETATM    7  C   UNL     1       6.503  -0.202 -14.108  1.00  0.00     0.178 C 
BRANCH   7   8
HETATM    8  S   UNL     1       6.560  -1.796 -14.862  1.00  0.00     0.118 S 
HETATM    9  O   UNL     1       7.432  -2.548 -13.961  1.00  0.00    -0.594 OA
HETATM   10  O   UNL     1       5.163  -2.216 -14.852  1.00  0.00    -0.594 OA
HETATM   11  O   UNL     1       7.119  -1.530 -16.183  1.00  0.00    -0.594 OA
ENDBRANCH   7   8
ENDBRANCH   3   7
BRANCH   2  12
HETATM   12  O   UNL     1       5.464  -2.066 -11.695  1.00  0.00    -0.380 OA
HETATM   13  H   UNL     1       4.584  -2.224 -11.265  1.00  0.00     0.211 HD
ENDBRANCH   2  12
BRANCH   6  14
HETATM   14  O   UNL     1       8.777   0.733 -10.692  1.00  0.00    -0.359 OA
HETATM   15  H   UNL     1       9.105   0.411 -11.551  1.00  0.00     0.213 HD
ENDBRANCH   6  14
BRANCH   4  16
HETATM   16  O   UNL     1       4.907  -0.654  -9.415  1.00  0.00    -0.380 OA
HETATM   17  H   UNL     1       4.336  -1.166 -10.027  1.00  0.00     0.211 HD
ENDBRANCH   4  16
BRANCH   5  18
HETATM   18  O   UNL     1       6.937   1.353  -8.682  1.00  0.00    -0.378 OA
HETATM   19  H   UNL     1       6.145   1.643  -8.189  1.00  0.00     0.211 HD
ENDBRANCH   5  18
TORSDOF 6
ENDMDL
MODEL 18
REMARK VINA RESULT:    -4.176      2.587      3.937
REMARK INTER + INTRA:          -5.534
REMARK INTER:                  -5.060
REMARK INTRA:                  -0.473
REMARK UNBOUND:                -0.381
REMARK  6 active torsions:
REMARK  status: ('A' for Active; 'I' for Inactive)
REMARK    1  A    between atoms: S_1  and  C_15 
REMARK    2  A    between atoms: O_3  and  C_10 
REMARK    3  A    between atoms: O_4  and  C_12 
REMARK    4  A    between atoms: O_5  and  C_13 
REMARK    5  A    between atoms: O_6  and  C_14 
REMARK    6  A    between atoms: C_11  and  C_15 
ROOT
HETATM    1  O   UNL     1       7.773   1.542 -14.332  1.00  0.00    -0.328 OA
HETATM    2  C   UNL     1       7.595   3.279 -12.596  1.00  0.00     0.168 C 
HETATM    3  C   UNL     1       7.816   1.776 -12.899  1.00  0.00     0.166 C 
HETATM    4  C   UNL     1       8.546   4.155 -13.432  1.00  0.00     0.172 C 
HETATM    5  C   UNL     1       8.494   3.800 -14.918  1.00  0.00     0.197 C 
HETATM    6  C   UNL     1       8.710   2.290 -15.081  1.00  0.00     0.263 C 
ENDROOT
BRANCH   3   7
HETATM    7  C   UNL     1       6.729   0.860 -12.338  1.00  0.00     0.178 C 
BRANCH   7   8
HETATM    8  S   UNL     1       6.867   0.540 -10.609  1.00  0.00     0.118 S 
HETATM    9  O   UNL     1       5.955   1.523 -10.025  1.00  0.00    -0.594 OA
HETATM   10  O   UNL     1       6.425  -0.846 -10.493  1.00  0.00    -0.594 OA
HETATM   11  O   UNL     1       8.281   0.767 -10.331  1.00  0.00    -0.594 OA
ENDBRANCH   7   8
ENDBRANCH   3   7
BRANCH   2  12
HETATM   12  O   UNL     1       7.843   3.678 -11.244  1.00  0.00    -0.380 OA
HETATM   13  H   UNL     1       7.018   3.527 -10.712  1.00  0.00     0.211 HD
ENDBRANCH   2  12
BRANCH   6  14
HETATM   14  O   UNL     1      10.036   1.940 -14.705  1.00  0.00    -0.359 OA
HETATM   15  H   UNL     1      10.123   2.270 -13.793  1.00  0.00     0.213 HD
ENDBRANCH   6  14
BRANCH   4  16
HETATM   16  O   UNL     1       8.188   5.535 -13.226  1.00  0.00    -0.380 OA
HETATM   17  H   UNL     1       8.390   5.685 -12.279  1.00  0.00     0.211 HD
ENDBRANCH   4  16
BRANCH   5  18
HETATM   18  O   UNL     1       9.502   4.512 -15.658  1.00  0.00    -0.378 OA
HETATM   19  H   UNL     1       9.091   4.708 -16.523  1.00  0.00     0.211 HD
ENDBRANCH   5  18
TORSDOF 6
ENDMDL
MODEL 19
REMARK VINA RESULT:    -3.829     17.105     18.775
REMARK INTER + INTRA:          -5.105
REMARK INTER:                  -4.687
REMARK INTRA:                  -0.418
REMARK UNBOUND:                -0.381
REMARK  6 active torsions:
REMARK  status: ('A' for Active; 'I' for Inactive)
REMARK    1  A    between atoms: S_1  and  C_15 
REMARK    2  A    between atoms: O_3  and  C_10 
REMARK    3  A    between atoms: O_4  and  C_12 
REMARK    4  A    between atoms: O_5  and  C_13 
REMARK    5  A    between atoms: O_6  and  C_14 
REMARK    6  A    between atoms: C_11  and  C_15 
ROOT
HETATM    1  O   UNL     1      10.862 -17.282  -4.794  1.00  0.00    -0.328 OA
HETATM    2  C   UNL     1      10.147 -15.031  -5.489  1.00  0.00     0.168 C 
HETATM    3  C   UNL     1       9.706 -16.473  -5.137  1.00  0.00     0.166 C 
HETATM    4  C   UNL     1      11.053 -14.448  -4.389  1.00  0.00     0.172 C 
HETATM    5  C   UNL     1      12.205 -15.389  -4.037  1.00  0.00     0.197 C 
HETATM    6  C   UNL     1      11.639 -16.780  -3.725  1.00  0.00     0.263 C 
ENDROOT
BRANCH   3   7
HETATM    7  C   UNL     1       9.053 -17.226  -6.296  1.00  0.00     0.178 C 
BRANCH   7   8
HETATM    8  S   UNL     1       7.292 -17.293  -6.221  1.00  0.00     0.118 S 
HETATM    9  O   UNL     1       6.905 -15.912  -6.507  1.00  0.00    -0.594 OA
HETATM   10  O   UNL     1       6.952 -18.250  -7.268  1.00  0.00    -0.594 OA
HETATM   11  O   UNL     1       7.023 -17.740  -4.859  1.00  0.00    -0.594 OA
ENDBRANCH   7   8
ENDBRANCH   3   7
BRANCH   2  12
HETATM   12  O   UNL     1       9.089 -14.077  -5.620  1.00  0.00    -0.380 OA
HETATM   13  H   UNL     1       8.331 -14.506  -6.097  1.00  0.00     0.211 HD
ENDBRANCH   2  12
BRANCH   6  14
HETATM   14  O   UNL     1      10.868 -16.741  -2.530  1.00  0.00    -0.359 OA
HETATM   15  H   UNL     1      10.458 -17.623  -2.479  1.00  0.00     0.213 HD
ENDBRANCH   6  14
BRANCH   4  16
HETATM   16  O   UNL     1      11.555 -13.176  -4.843  1.00  0.00    -0.380 OA
HETATM   17  H   UNL     1      11.019 -12.991  -5.643  1.00  0.00     0.211 HD
ENDBRANCH   4  16
BRANCH   5  18
HETATM   18  O   UNL     1      12.942 -14.904  -2.900  1.00  0.00    -0.378 OA
HETATM   19  H   UNL     1      12.321 -14.318  -2.426  1.00  0.00     0.211 HD
ENDBRANCH   5  18
TORSDOF 6
ENDMDL
MODEL 20
REMARK VINA RESULT:    -3.746     35.087     36.632
REMARK INTER + INTRA:          -5.003
REMARK INTER:                  -4.596
REMARK INTRA:                  -0.406
REMARK UNBOUND:                -0.381
REMARK  6 active torsions:
REMARK  status: ('A' for Active; 'I' for Inactive)
REMARK    1  A    between atoms: S_1  and  C_15 
REMARK    2  A    between atoms: O_3  and  C_10 
REMARK    3  A    between atoms: O_4  and  C_12 
REMARK    4  A    between atoms: O_5  and  C_13 
REMARK    5  A    between atoms: O_6  and  C_14 
REMARK    6  A    between atoms: C_11  and  C_15 
ROOT
HETATM    1  O   UNL     1     -16.057 -10.875  16.103  1.00  0.00    -0.328 OA
HETATM    2  C   UNL     1     -15.282 -10.578  13.784  1.00  0.00     0.168 C 
HETATM    3  C   UNL     1     -16.492 -10.827  14.718  1.00  0.00     0.166 C 
HETATM    4  C   UNL     1     -14.464  -9.363  14.256  1.00  0.00     0.172 C 
HETATM    5  C   UNL     1     -14.105  -9.455  15.739  1.00  0.00     0.197 C 
HETATM    6  C   UNL     1     -15.380  -9.717  16.549  1.00  0.00     0.263 C 
ENDROOT
BRANCH   3   7
HETATM    7  C   UNL     1     -17.185 -12.173  14.497  1.00  0.00     0.178 C 
BRANCH   7   8
HETATM    8  S   UNL     1     -18.687 -12.077  13.578  1.00  0.00     0.118 S 
HETATM    9  O   UNL     1     -19.493 -11.153  14.374  1.00  0.00    -0.594 OA
HETATM   10  O   UNL     1     -18.252 -11.550  12.288  1.00  0.00    -0.594 OA
HETATM   11  O   UNL     1     -19.165 -13.455  13.558  1.00  0.00    -0.594 OA
ENDBRANCH   7   8
ENDBRANCH   3   7
BRANCH   2  12
HETATM   12  O   UNL     1     -15.605 -10.281  12.422  1.00  0.00    -0.380 OA
HETATM   13  H   UNL     1     -15.045 -10.849  11.831  1.00  0.00     0.211 HD
ENDBRANCH   2  12
BRANCH   6  14
HETATM   14  O   UNL     1     -16.242  -8.587  16.488  1.00  0.00    -0.359 OA
HETATM   15  H   UNL     1     -15.660  -7.829  16.674  1.00  0.00     0.213 HD
ENDBRANCH   6  14
BRANCH   4  16
HETATM   16  O   UNL     1     -13.274  -9.278  13.449  1.00  0.00    -0.380 OA
HETATM   17  H   UNL     1     -12.547  -9.353  14.103  1.00  0.00     0.211 HD
ENDBRANCH   4  16
BRANCH   5  18
HETATM   18  O   UNL     1     -13.484  -8.241  16.199  1.00  0.00    -0.378 OA
HETATM   19  H   UNL     1     -13.557  -8.272  17.173  1.00  0.00     0.211 HD
ENDBRANCH   5  18
TORSDOF 6
ENDMDL
