MODEL 1
REMARK VINA RESULT:    -5.467      0.000      0.000
REMARK INTER + INTRA:          -9.463
REMARK INTER:                  -8.071
REMARK INTRA:                  -1.392
REMARK UNBOUND:                -1.440
REMARK  12 active torsions:
REMARK  status: ('A' for Active; 'I' for Inactive)
REMARK    1  A    between atoms: O_1  and  C_12 
REMARK    2  A    between atoms: O_1  and  C_14 
REMARK    3  A    between atoms: O_4  and  C_13 
REMARK    4  A    between atoms: O_5  and  C_16 
REMARK    5  A    between atoms: O_6  and  C_17 
REMARK    6  A    between atoms: O_7  and  C_18 
REMARK    7  A    between atoms: O_8  and  C_19 
REMARK    8  A    between atoms: O_9  and  C_21 
REMARK    9  A    between atoms: O_10  and  C_22 
REMARK   10  A    between atoms: O_11  and  C_23 
REMARK   11  A    between atoms: C_15  and  C_22 
REMARK   12  A    between atoms: C_20  and  C_23 
ROOT
HETATM    1  O   UNL     1      41.110  45.926  34.882  1.00  0.00    -0.326 OA
ENDROOT
BRANCH   1   2
HETATM    2  C   UNL     1      42.239  46.303  34.068  1.00  0.00     0.177 C 
HETATM    3  C   UNL     1      41.914  46.105  32.572  1.00  0.00     0.172 C 
HETATM    4  C   UNL     1      42.954  46.778  31.669  1.00  0.00     0.197 C 
HETATM    5  C   UNL     1      43.223  48.220  32.125  1.00  0.00     0.263 C 
HETATM    6  O   UNL     1      43.597  48.270  33.490  1.00  0.00    -0.327 OA
HETATM    7  C   UNL     1      42.545  47.787  34.342  1.00  0.00     0.177 C 
BRANCH   3   8
HETATM    8  O   UNL     1      41.878  44.700  32.264  1.00  0.00    -0.380 OA
HETATM    9  H   UNL     1      41.127  44.340  32.779  1.00  0.00     0.211 HD
ENDBRANCH   3   8
BRANCH   4  10
HETATM   10  O   UNL     1      42.493  46.794  30.306  1.00  0.00    -0.378 OA
HETATM   11  H   UNL     1      41.734  47.407  30.299  1.00  0.00     0.211 HD
ENDBRANCH   4  10
BRANCH   5  12
HETATM   12  O   UNL     1      44.301  48.734  31.353  1.00  0.00    -0.359 OA
HETATM   13  H   UNL     1      43.885  49.184  30.600  1.00  0.00     0.213 HD
ENDBRANCH   5  12
BRANCH   7  14
HETATM   14  C   UNL     1      43.003  47.999  35.789  1.00  0.00     0.170 C 
BRANCH  14  15
HETATM   15  O   UNL     1      41.863  48.132  36.638  1.00  0.00    -0.380 OA
HETATM   16  H   UNL     1      41.666  47.231  36.959  1.00  0.00     0.211 HD
ENDBRANCH  14  15
ENDBRANCH   7  14
ENDBRANCH   1   2
BRANCH   1  17
HETATM   17  C   UNL     1      41.344  44.772  35.701  1.00  0.00     0.266 C 
HETATM   18  O   UNL     1      41.850  43.713  34.897  1.00  0.00    -0.326 OA
HETATM   19  C   UNL     1      42.168  42.542  35.684  1.00  0.00     0.176 C 
HETATM   20  C   UNL     1      40.866  41.964  36.257  1.00  0.00     0.170 C 
HETATM   21  C   UNL     1      40.178  43.049  37.110  1.00  0.00     0.172 C 
HETATM   22  C   UNL     1      39.999  44.356  36.328  1.00  0.00     0.197 C 
BRANCH  19  23
HETATM   23  C   UNL     1      42.899  41.560  34.766  1.00  0.00     0.170 C 
BRANCH  23  24
HETATM   24  O   UNL     1      42.536  41.825  33.408  1.00  0.00    -0.380 OA
HETATM   25  H   UNL     1      42.403  42.792  33.326  1.00  0.00     0.211 HD
ENDBRANCH  23  24
ENDBRANCH  19  23
BRANCH  20  26
HETATM   26  O   UNL     1      40.019  41.523  35.186  1.00  0.00    -0.380 OA
HETATM   27  H   UNL     1      39.196  42.039  35.201  1.00  0.00     0.211 HD
ENDBRANCH  20  26
BRANCH  21  28
HETATM   28  O   UNL     1      38.911  42.601  37.597  1.00  0.00    -0.380 OA
HETATM   29  H   UNL     1      39.072  42.270  38.502  1.00  0.00     0.211 HD
ENDBRANCH  21  28
BRANCH  22  30
HETATM   30  O   UNL     1      39.506  45.367  37.221  1.00  0.00    -0.378 OA
HETATM   31  H   UNL     1      39.985  45.240  38.063  1.00  0.00     0.211 HD
ENDBRANCH  22  30
ENDBRANCH   1  17
TORSDOF 12
ENDMDL
MODEL 2
REMARK VINA RESULT:    -5.248      1.816      6.794
REMARK INTER + INTRA:          -9.142
REMARK INTER:                  -7.683
REMARK INTRA:                  -1.459
REMARK UNBOUND:                -1.440
REMARK  12 active torsions:
REMARK  status: ('A' for Active; 'I' for Inactive)
REMARK    1  A    between atoms: O_1  and  C_12 
REMARK    2  A    between atoms: O_1  and  C_14 
REMARK    3  A    between atoms: O_4  and  C_13 
REMARK    4  A    between atoms: O_5  and  C_16 
REMARK    5  A    between atoms: O_6  and  C_17 
REMARK    6  A    between atoms: O_7  and  C_18 
REMARK    7  A    between atoms: O_8  and  C_19 
REMARK    8  A    between atoms: O_9  and  C_21 
REMARK    9  A    between atoms: O_10  and  C_22 
REMARK   10  A    between atoms: O_11  and  C_23 
REMARK   11  A    between atoms: C_15  and  C_22 
REMARK   12  A    between atoms: C_20  and  C_23 
ROOT
HETATM    1  O   UNL     1      41.413  43.085  34.616  1.00  0.00    -0.326 OA
ENDROOT
BRANCH   1   2
HETATM    2  C   UNL     1      41.201  43.012  36.041  1.00  0.00     0.177 C 
HETATM    3  C   UNL     1      39.763  43.448  36.395  1.00  0.00     0.172 C 
HETATM    4  C   UNL     1      39.399  43.093  37.841  1.00  0.00     0.197 C 
HETATM    5  C   UNL     1      39.767  41.636  38.155  1.00  0.00     0.263 C 
HETATM    6  O   UNL     1      41.131  41.374  37.874  1.00  0.00    -0.327 OA
HETATM    7  C   UNL     1      41.423  41.553  36.478  1.00  0.00     0.177 C 
BRANCH   3   8
HETATM    8  O   UNL     1      39.631  44.872  36.223  1.00  0.00    -0.380 OA
HETATM    9  H   UNL     1      39.086  45.175  36.977  1.00  0.00     0.211 HD
ENDBRANCH   3   8
BRANCH   4  10
HETATM   10  O   UNL     1      37.989  43.280  38.058  1.00  0.00    -0.378 OA
HETATM   11  H   UNL     1      37.550  42.675  37.430  1.00  0.00     0.211 HD
ENDBRANCH   4  10
BRANCH   5  12
HETATM   12  O   UNL     1      39.553  41.415  39.543  1.00  0.00    -0.359 OA
HETATM   13  H   UNL     1      39.464  42.300  39.933  1.00  0.00     0.213 HD
ENDBRANCH   5  12
BRANCH   7  14
HETATM   14  C   UNL     1      42.881  41.128  36.265  1.00  0.00     0.170 C 
BRANCH  14  15
HETATM   15  O   UNL     1      43.024  40.538  34.974  1.00  0.00    -0.380 OA
HETATM   16  H   UNL     1      42.513  39.706  35.004  1.00  0.00     0.211 HD
ENDBRANCH  14  15
ENDBRANCH   7  14
ENDBRANCH   1   2
BRANCH   1  17
HETATM   17  C   UNL     1      42.166  44.232  34.199  1.00  0.00     0.266 C 
HETATM   18  O   UNL     1      41.275  45.261  33.784  1.00  0.00    -0.326 OA
HETATM   19  C   UNL     1      41.980  46.468  33.415  1.00  0.00     0.176 C 
HETATM   20  C   UNL     1      42.814  46.188  32.156  1.00  0.00     0.170 C 
HETATM   21  C   UNL     1      43.790  45.034  32.458  1.00  0.00     0.172 C 
HETATM   22  C   UNL     1      43.061  43.807  33.020  1.00  0.00     0.197 C 
BRANCH  19  23
HETATM   23  C   UNL     1      40.929  47.560  33.199  1.00  0.00     0.170 C 
BRANCH  23  24
HETATM   24  O   UNL     1      41.463  48.563  32.329  1.00  0.00    -0.380 OA
HETATM   25  H   UNL     1      41.391  49.421  32.796  1.00  0.00     0.211 HD
ENDBRANCH  23  24
ENDBRANCH  19  23
BRANCH  20  26
HETATM   26  O   UNL     1      41.944  45.867  31.061  1.00  0.00    -0.380 OA
HETATM   27  H   UNL     1      42.477  45.521  30.325  1.00  0.00     0.211 HD
ENDBRANCH  20  26
BRANCH  21  28
HETATM   28  O   UNL     1      44.532  44.664  31.294  1.00  0.00    -0.380 OA
HETATM   29  H   UNL     1      44.309  45.326  30.611  1.00  0.00     0.211 HD
ENDBRANCH  21  28
BRANCH  22  30
HETATM   30  O   UNL     1      44.037  42.836  33.430  1.00  0.00    -0.378 OA
HETATM   31  H   UNL     1      44.054  42.157  32.728  1.00  0.00     0.211 HD
ENDBRANCH  22  30
ENDBRANCH   1  17
TORSDOF 12
ENDMDL
MODEL 3
REMARK VINA RESULT:    -5.152      2.096      6.329
REMARK INTER + INTRA:          -9.001
REMARK INTER:                  -7.561
REMARK INTRA:                  -1.440
REMARK UNBOUND:                -1.440
REMARK  12 active torsions:
REMARK  status: ('A' for Active; 'I' for Inactive)
REMARK    1  A    between atoms: O_1  and  C_12 
REMARK    2  A    between atoms: O_1  and  C_14 
REMARK    3  A    between atoms: O_4  and  C_13 
REMARK    4  A    between atoms: O_5  and  C_16 
REMARK    5  A    between atoms: O_6  and  C_17 
REMARK    6  A    between atoms: O_7  and  C_18 
REMARK    7  A    between atoms: O_8  and  C_19 
REMARK    8  A    between atoms: O_9  and  C_21 
REMARK    9  A    between atoms: O_10  and  C_22 
REMARK   10  A    between atoms: O_11  and  C_23 
REMARK   11  A    between atoms: C_15  and  C_22 
REMARK   12  A    between atoms: C_20  and  C_23 
ROOT
HETATM    1  O   UNL     1      41.933  46.342  34.412  1.00  0.00    -0.326 OA
ENDROOT
BRANCH   1   2
HETATM    2  C   UNL     1      41.458  44.994  34.218  1.00  0.00     0.177 C 
HETATM    3  C   UNL     1      42.209  44.020  35.150  1.00  0.00     0.172 C 
HETATM    4  C   UNL     1      41.531  42.645  35.204  1.00  0.00     0.197 C 
HETATM    5  C   UNL     1      40.021  42.790  35.439  1.00  0.00     0.263 C 
HETATM    6  O   UNL     1      39.425  43.636  34.472  1.00  0.00    -0.327 OA
HETATM    7  C   UNL     1      39.954  44.970  34.543  1.00  0.00     0.177 C 
BRANCH   3   8
HETATM    8  O   UNL     1      43.561  43.849  34.688  1.00  0.00    -0.380 OA
HETATM    9  H   UNL     1      43.525  43.993  33.721  1.00  0.00     0.211 HD
ENDBRANCH   3   8
BRANCH   4  10
HETATM   10  O   UNL     1      42.099  41.852  36.261  1.00  0.00    -0.378 OA
HETATM   11  H   UNL     1      42.732  41.253  35.821  1.00  0.00     0.211 HD
ENDBRANCH   4  10
BRANCH   5  12
HETATM   12  O   UNL     1      39.430  41.501  35.322  1.00  0.00    -0.359 OA
HETATM   13  H   UNL     1      38.570  41.573  35.767  1.00  0.00     0.213 HD
ENDBRANCH   5  12
BRANCH   7  14
HETATM   14  C   UNL     1      39.160  45.824  33.548  1.00  0.00     0.170 C 
BRANCH  14  15
HETATM   15  O   UNL     1      39.048  47.158  34.044  1.00  0.00    -0.380 OA
HETATM   16  H   UNL     1      39.369  47.735  33.324  1.00  0.00     0.211 HD
ENDBRANCH  14  15
ENDBRANCH   7  14
ENDBRANCH   1   2
BRANCH   1  17
HETATM   17  C   UNL     1      42.871  46.777  33.419  1.00  0.00     0.266 C 
HETATM   18  O   UNL     1      44.196  46.590  33.903  1.00  0.00    -0.326 OA
HETATM   19  C   UNL     1      45.188  46.950  32.913  1.00  0.00     0.176 C 
HETATM   20  C   UNL     1      45.108  48.464  32.663  1.00  0.00     0.170 C 
HETATM   21  C   UNL     1      43.683  48.810  32.187  1.00  0.00     0.172 C 
HETATM   22  C   UNL     1      42.617  48.272  33.150  1.00  0.00     0.197 C 
BRANCH  19  23
HETATM   23  C   UNL     1      46.550  46.510  33.452  1.00  0.00     0.170 C 
BRANCH  23  24
HETATM   24  O   UNL     1      47.555  47.420  32.998  1.00  0.00    -0.380 OA
HETATM   25  H   UNL     1      47.616  47.324  32.025  1.00  0.00     0.211 HD
ENDBRANCH  23  24
ENDBRANCH  19  23
BRANCH  20  26
HETATM   26  O   UNL     1      45.448  49.171  33.863  1.00  0.00    -0.380 OA
HETATM   27  H   UNL     1      46.028  48.613  34.406  1.00  0.00     0.211 HD
ENDBRANCH  20  26
BRANCH  21  28
HETATM   28  O   UNL     1      43.519  50.221  32.026  1.00  0.00    -0.380 OA
HETATM   29  H   UNL     1      44.232  50.637  32.549  1.00  0.00     0.211 HD
ENDBRANCH  21  28
BRANCH  22  30
HETATM   30  O   UNL     1      41.321  48.485  32.571  1.00  0.00    -0.378 OA
HETATM   31  H   UNL     1      41.043  49.379  32.849  1.00  0.00     0.211 HD
ENDBRANCH  22  30
ENDBRANCH   1  17
TORSDOF 12
ENDMDL
MODEL 4
REMARK VINA RESULT:    -4.953      2.153      3.160
REMARK INTER + INTRA:          -8.708
REMARK INTER:                  -7.266
REMARK INTRA:                  -1.442
REMARK UNBOUND:                -1.440
REMARK  12 active torsions:
REMARK  status: ('A' for Active; 'I' for Inactive)
REMARK    1  A    between atoms: O_1  and  C_12 
REMARK    2  A    between atoms: O_1  and  C_14 
REMARK    3  A    between atoms: O_4  and  C_13 
REMARK    4  A    between atoms: O_5  and  C_16 
REMARK    5  A    between atoms: O_6  and  C_17 
REMARK    6  A    between atoms: O_7  and  C_18 
REMARK    7  A    between atoms: O_8  and  C_19 
REMARK    8  A    between atoms: O_9  and  C_21 
REMARK    9  A    between atoms: O_10  and  C_22 
REMARK   10  A    between atoms: O_11  and  C_23 
REMARK   11  A    between atoms: C_15  and  C_22 
REMARK   12  A    between atoms: C_20  and  C_23 
ROOT
HETATM    1  O   UNL     1      41.638  43.425  34.044  1.00  0.00    -0.326 OA
ENDROOT
BRANCH   1   2
HETATM    2  C   UNL     1      41.508  44.614  33.238  1.00  0.00     0.177 C 
HETATM    3  C   UNL     1      40.226  45.385  33.621  1.00  0.00     0.172 C 
HETATM    4  C   UNL     1      40.208  46.795  33.018  1.00  0.00     0.197 C 
HETATM    5  C   UNL     1      41.541  47.515  33.273  1.00  0.00     0.263 C 
HETATM    6  O   UNL     1      42.639  46.753  32.803  1.00  0.00    -0.327 OA
HETATM    7  C   UNL     1      42.742  45.497  33.494  1.00  0.00     0.177 C 
BRANCH   3   8
HETATM    8  O   UNL     1      39.069  44.669  33.150  1.00  0.00    -0.380 OA
HETATM    9  H   UNL     1      38.745  45.177  32.379  1.00  0.00     0.211 HD
ENDBRANCH   3   8
BRANCH   4  10
HETATM   10  O   UNL     1      39.139  47.567  33.593  1.00  0.00    -0.378 OA
HETATM   11  H   UNL     1      39.099  47.293  34.529  1.00  0.00     0.211 HD
ENDBRANCH   4  10
BRANCH   5  12
HETATM   12  O   UNL     1      41.522  48.746  32.562  1.00  0.00    -0.359 OA
HETATM   13  H   UNL     1      40.596  49.040  32.583  1.00  0.00     0.213 HD
ENDBRANCH   5  12
BRANCH   7  14
HETATM   14  C   UNL     1      44.023  44.814  33.000  1.00  0.00     0.170 C 
BRANCH  14  15
HETATM   15  O   UNL     1      44.506  43.920  34.002  1.00  0.00    -0.380 OA
HETATM   16  H   UNL     1      44.613  44.460  34.809  1.00  0.00     0.211 HD
ENDBRANCH  14  15
ENDBRANCH   7  14
ENDBRANCH   1   2
BRANCH   1  17
HETATM   17  C   UNL     1      41.165  43.580  35.389  1.00  0.00     0.266 C 
HETATM   18  O   UNL     1      42.271  43.773  36.263  1.00  0.00    -0.326 OA
HETATM   19  C   UNL     1      41.848  44.002  37.627  1.00  0.00     0.176 C 
HETATM   20  C   UNL     1      41.188  42.722  38.161  1.00  0.00     0.170 C 
HETATM   21  C   UNL     1      39.995  42.365  37.251  1.00  0.00     0.172 C 
HETATM   22  C   UNL     1      40.409  42.295  35.776  1.00  0.00     0.197 C 
BRANCH  19  23
HETATM   23  C   UNL     1      43.088  44.408  38.427  1.00  0.00     0.170 C 
BRANCH  23  24
HETATM   24  O   UNL     1      44.236  43.754  37.882  1.00  0.00    -0.380 OA
HETATM   25  H   UNL     1      44.122  42.792  38.031  1.00  0.00     0.211 HD
ENDBRANCH  23  24
ENDBRANCH  19  23
BRANCH  20  26
HETATM   26  O   UNL     1      42.152  41.661  38.202  1.00  0.00    -0.380 OA
HETATM   27  H   UNL     1      42.897  41.932  38.765  1.00  0.00     0.211 HD
ENDBRANCH  20  26
BRANCH  21  28
HETATM   28  O   UNL     1      39.395  41.129  37.644  1.00  0.00    -0.380 OA
HETATM   29  H   UNL     1      40.111  40.464  37.624  1.00  0.00     0.211 HD
ENDBRANCH  21  28
BRANCH  22  30
HETATM   30  O   UNL     1      39.231  42.122  34.973  1.00  0.00    -0.378 OA
HETATM   31  H   UNL     1      39.532  42.134  34.044  1.00  0.00     0.211 HD
ENDBRANCH  22  30
ENDBRANCH   1  17
TORSDOF 12
ENDMDL
MODEL 5
REMARK VINA RESULT:    -4.889      2.546      4.836
REMARK INTER + INTRA:          -8.615
REMARK INTER:                  -7.315
REMARK INTRA:                  -1.299
REMARK UNBOUND:                -1.440
REMARK  12 active torsions:
REMARK  status: ('A' for Active; 'I' for Inactive)
REMARK    1  A    between atoms: O_1  and  C_12 
REMARK    2  A    between atoms: O_1  and  C_14 
REMARK    3  A    between atoms: O_4  and  C_13 
REMARK    4  A    between atoms: O_5  and  C_16 
REMARK    5  A    between atoms: O_6  and  C_17 
REMARK    6  A    between atoms: O_7  and  C_18 
REMARK    7  A    between atoms: O_8  and  C_19 
REMARK    8  A    between atoms: O_9  and  C_21 
REMARK    9  A    between atoms: O_10  and  C_22 
REMARK   10  A    between atoms: O_11  and  C_23 
REMARK   11  A    between atoms: C_15  and  C_22 
REMARK   12  A    between atoms: C_20  and  C_23 
ROOT
HETATM    1  O   UNL     1      43.355  47.448  33.753  1.00  0.00    -0.326 OA
ENDROOT
BRANCH   1   2
HETATM    2  C   UNL     1      44.027  48.540  34.413  1.00  0.00     0.177 C 
HETATM    3  C   UNL     1      44.718  48.045  35.702  1.00  0.00     0.172 C 
HETATM    4  C   UNL     1      45.692  49.088  36.263  1.00  0.00     0.197 C 
HETATM    5  C   UNL     1      46.612  49.627  35.158  1.00  0.00     0.263 C 
HETATM    6  O   UNL     1      45.866  50.133  34.064  1.00  0.00    -0.327 OA
HETATM    7  C   UNL     1      45.079  49.104  33.443  1.00  0.00     0.177 C 
BRANCH   3   8
HETATM    8  O   UNL     1      43.727  47.755  36.705  1.00  0.00    -0.380 OA
HETATM    9  H   UNL     1      42.889  48.119  36.355  1.00  0.00     0.211 HD
ENDBRANCH   3   8
BRANCH   4  10
HETATM   10  O   UNL     1      46.497  48.507  37.304  1.00  0.00    -0.378 OA
HETATM   11  H   UNL     1      46.738  47.619  36.977  1.00  0.00     0.211 HD
ENDBRANCH   4  10
BRANCH   5  12
HETATM   12  O   UNL     1      47.378  50.694  35.701  1.00  0.00    -0.359 OA
HETATM   13  H   UNL     1      47.573  50.431  36.615  1.00  0.00     0.213 HD
ENDBRANCH   5  12
BRANCH   7  14
HETATM   14  C   UNL     1      44.416  49.727  32.209  1.00  0.00     0.170 C 
BRANCH  14  15
HETATM   15  O   UNL     1      44.080  48.700  31.276  1.00  0.00    -0.380 OA
HETATM   16  H   UNL     1      44.930  48.376  30.922  1.00  0.00     0.211 HD
ENDBRANCH  14  15
ENDBRANCH   7  14
ENDBRANCH   1   2
BRANCH   1  17
HETATM   17  C   UNL     1      41.986  47.285  34.147  1.00  0.00     0.266 C 
HETATM   18  O   UNL     1      41.834  46.053  34.843  1.00  0.00    -0.326 OA
HETATM   19  C   UNL     1      40.483  45.867  35.323  1.00  0.00     0.176 C 
HETATM   20  C   UNL     1      39.546  45.713  34.116  1.00  0.00     0.170 C 
HETATM   21  C   UNL     1      39.665  46.974  33.236  1.00  0.00     0.172 C 
HETATM   22  C   UNL     1      41.123  47.275  32.870  1.00  0.00     0.197 C 
BRANCH  19  23
HETATM   23  C   UNL     1      40.487  44.635  36.231  1.00  0.00     0.170 C 
BRANCH  23  24
HETATM   24  O   UNL     1      39.251  43.933  36.079  1.00  0.00    -0.380 OA
HETATM   25  H   UNL     1      39.300  43.132  36.641  1.00  0.00     0.211 HD
ENDBRANCH  23  24
ENDBRANCH  19  23
BRANCH  20  26
HETATM   26  O   UNL     1      39.890  44.528  33.385  1.00  0.00    -0.380 OA
HETATM   27  H   UNL     1      40.661  44.110  33.804  1.00  0.00     0.211 HD
ENDBRANCH  20  26
BRANCH  21  28
HETATM   28  O   UNL     1      38.884  46.850  32.045  1.00  0.00    -0.380 OA
HETATM   29  H   UNL     1      38.277  46.100  32.198  1.00  0.00     0.211 HD
ENDBRANCH  21  28
BRANCH  22  30
HETATM   30  O   UNL     1      41.180  48.540  32.193  1.00  0.00    -0.378 OA
HETATM   31  H   UNL     1      41.158  49.222  32.892  1.00  0.00     0.211 HD
ENDBRANCH  22  30
ENDBRANCH   1  17
TORSDOF 12
ENDMDL
MODEL 6
REMARK VINA RESULT:    -4.789      1.415      2.697
REMARK INTER + INTRA:          -8.468
REMARK INTER:                  -6.871
REMARK INTRA:                  -1.598
REMARK UNBOUND:                -1.440
REMARK  12 active torsions:
REMARK  status: ('A' for Active; 'I' for Inactive)
REMARK    1  A    between atoms: O_1  and  C_12 
REMARK    2  A    between atoms: O_1  and  C_14 
REMARK    3  A    between atoms: O_4  and  C_13 
REMARK    4  A    between atoms: O_5  and  C_16 
REMARK    5  A    between atoms: O_6  and  C_17 
REMARK    6  A    between atoms: O_7  and  C_18 
REMARK    7  A    between atoms: O_8  and  C_19 
REMARK    8  A    between atoms: O_9  and  C_21 
REMARK    9  A    between atoms: O_10  and  C_22 
REMARK   10  A    between atoms: O_11  and  C_23 
REMARK   11  A    between atoms: C_15  and  C_22 
REMARK   12  A    between atoms: C_20  and  C_23 
ROOT
HETATM    1  O   UNL     1      40.884  45.742  33.269  1.00  0.00    -0.326 OA
ENDROOT
BRANCH   1   2
HETATM    2  C   UNL     1      41.785  46.796  32.871  1.00  0.00     0.177 C 
HETATM    3  C   UNL     1      41.946  47.824  34.012  1.00  0.00     0.172 C 
HETATM    4  C   UNL     1      43.118  48.779  33.757  1.00  0.00     0.197 C 
HETATM    5  C   UNL     1      44.379  48.002  33.354  1.00  0.00     0.263 C 
HETATM    6  O   UNL     1      44.134  47.157  32.243  1.00  0.00    -0.327 OA
HETATM    7  C   UNL     1      43.147  46.158  32.550  1.00  0.00     0.177 C 
BRANCH   3   8
HETATM    8  O   UNL     1      40.740  48.599  34.142  1.00  0.00    -0.380 OA
HETATM    9  H   UNL     1      41.037  49.507  34.355  1.00  0.00     0.211 HD
ENDBRANCH   3   8
BRANCH   4  10
HETATM   10  O   UNL     1      43.397  49.550  34.938  1.00  0.00    -0.378 OA
HETATM   11  H   UNL     1      42.576  50.044  35.123  1.00  0.00     0.211 HD
ENDBRANCH   4  10
BRANCH   5  12
HETATM   12  O   UNL     1      45.378  48.942  32.980  1.00  0.00    -0.359 OA
HETATM   13  H   UNL     1      45.506  48.815  32.026  1.00  0.00     0.213 HD
ENDBRANCH   5  12
BRANCH   7  14
HETATM   14  C   UNL     1      43.051  45.231  31.333  1.00  0.00     0.170 C 
BRANCH  14  15
HETATM   15  O   UNL     1      42.932  43.877  31.770  1.00  0.00    -0.380 OA
HETATM   16  H   UNL     1      43.412  43.343  31.108  1.00  0.00     0.211 HD
ENDBRANCH  14  15
ENDBRANCH   7  14
ENDBRANCH   1   2
BRANCH   1  17
HETATM   17  C   UNL     1      41.232  45.119  34.513  1.00  0.00     0.266 C 
HETATM   18  O   UNL     1      41.723  43.806  34.266  1.00  0.00    -0.326 OA
HETATM   19  C   UNL     1      42.152  43.154  35.483  1.00  0.00     0.176 C 
HETATM   20  C   UNL     1      40.925  42.915  36.375  1.00  0.00     0.170 C 
HETATM   21  C   UNL     1      40.257  44.272  36.668  1.00  0.00     0.172 C 
HETATM   22  C   UNL     1      39.959  45.048  35.379  1.00  0.00     0.197 C 
BRANCH  19  23
HETATM   23  C   UNL     1      42.854  41.855  35.080  1.00  0.00     0.170 C 
BRANCH  23  24
HETATM   24  O   UNL     1      42.403  41.458  33.782  1.00  0.00    -0.380 OA
HETATM   25  H   UNL     1      41.561  41.929  33.610  1.00  0.00     0.211 HD
ENDBRANCH  23  24
ENDBRANCH  19  23
BRANCH  20  26
HETATM   26  O   UNL     1      40.020  42.014  35.722  1.00  0.00    -0.380 OA
HETATM   27  H   UNL     1      40.508  41.504  35.054  1.00  0.00     0.211 HD
ENDBRANCH  20  26
BRANCH  21  28
HETATM   28  O   UNL     1      39.052  44.106  37.420  1.00  0.00    -0.380 OA
HETATM   29  H   UNL     1      39.324  43.750  38.288  1.00  0.00     0.211 HD
ENDBRANCH  21  28
BRANCH  22  30
HETATM   30  O   UNL     1      39.492  46.360  35.726  1.00  0.00    -0.378 OA
HETATM   31  H   UNL     1      38.545  46.383  35.486  1.00  0.00     0.211 HD
ENDBRANCH  22  30
ENDBRANCH   1  17
TORSDOF 12
ENDMDL
MODEL 7
REMARK VINA RESULT:    -4.783      2.174      5.904
REMARK INTER + INTRA:          -8.460
REMARK INTER:                  -6.917
REMARK INTRA:                  -1.543
REMARK UNBOUND:                -1.440
REMARK  12 active torsions:
REMARK  status: ('A' for Active; 'I' for Inactive)
REMARK    1  A    between atoms: O_1  and  C_12 
REMARK    2  A    between atoms: O_1  and  C_14 
REMARK    3  A    between atoms: O_4  and  C_13 
REMARK    4  A    between atoms: O_5  and  C_16 
REMARK    5  A    between atoms: O_6  and  C_17 
REMARK    6  A    between atoms: O_7  and  C_18 
REMARK    7  A    between atoms: O_8  and  C_19 
REMARK    8  A    between atoms: O_9  and  C_21 
REMARK    9  A    between atoms: O_10  and  C_22 
REMARK   10  A    between atoms: O_11  and  C_23 
REMARK   11  A    between atoms: C_15  and  C_22 
REMARK   12  A    between atoms: C_20  and  C_23 
ROOT
HETATM    1  O   UNL     1      41.888  45.193  32.595  1.00  0.00    -0.326 OA
ENDROOT
BRANCH   1   2
HETATM    2  C   UNL     1      40.880  45.305  33.620  1.00  0.00     0.177 C 
HETATM    3  C   UNL     1      41.313  44.537  34.887  1.00  0.00     0.172 C 
HETATM    4  C   UNL     1      40.431  44.883  36.093  1.00  0.00     0.197 C 
HETATM    5  C   UNL     1      40.274  46.403  36.236  1.00  0.00     0.263 C 
HETATM    6  O   UNL     1      39.788  46.989  35.040  1.00  0.00    -0.327 OA
HETATM    7  C   UNL     1      40.706  46.798  33.951  1.00  0.00     0.177 C 
BRANCH   3   8
HETATM    8  O   UNL     1      41.231  43.120  34.648  1.00  0.00    -0.380 OA
HETATM    9  H   UNL     1      41.439  43.004  33.699  1.00  0.00     0.211 HD
ENDBRANCH   3   8
BRANCH   4  10
HETATM   10  O   UNL     1      41.009  44.353  37.298  1.00  0.00    -0.378 OA
HETATM   11  H   UNL     1      41.221  43.422  37.095  1.00  0.00     0.211 HD
ENDBRANCH   4  10
BRANCH   5  12
HETATM   12  O   UNL     1      39.326  46.655  37.266  1.00  0.00    -0.359 OA
HETATM   13  H   UNL     1      38.481  46.318  36.926  1.00  0.00     0.213 HD
ENDBRANCH   5  12
BRANCH   7  14
HETATM   14  C   UNL     1      40.146  47.570  32.750  1.00  0.00     0.170 C 
BRANCH  14  15
HETATM   15  O   UNL     1      41.170  48.393  32.191  1.00  0.00    -0.380 OA
HETATM   16  H   UNL     1      40.813  48.718  31.342  1.00  0.00     0.211 HD
ENDBRANCH  14  15
ENDBRANCH   7  14
ENDBRANCH   1   2
BRANCH   1  17
HETATM   17  C   UNL     1      43.199  45.586  33.024  1.00  0.00     0.266 C 
HETATM   18  O   UNL     1      43.539  46.836  32.434  1.00  0.00    -0.326 OA
HETATM   19  C   UNL     1      44.827  47.313  32.886  1.00  0.00     0.176 C 
HETATM   20  C   UNL     1      45.916  46.364  32.365  1.00  0.00     0.170 C 
HETATM   21  C   UNL     1      45.625  44.944  32.890  1.00  0.00     0.172 C 
HETATM   22  C   UNL     1      44.193  44.502  32.564  1.00  0.00     0.197 C 
BRANCH  19  23
HETATM   23  C   UNL     1      44.989  48.744  32.367  1.00  0.00     0.170 C 
BRANCH  23  24
HETATM   24  O   UNL     1      44.151  48.929  31.224  1.00  0.00    -0.380 OA
HETATM   25  H   UNL     1      44.291  49.845  30.905  1.00  0.00     0.211 HD
ENDBRANCH  23  24
ENDBRANCH  19  23
BRANCH  20  26
HETATM   26  O   UNL     1      45.943  46.399  30.932  1.00  0.00    -0.380 OA
HETATM   27  H   UNL     1      46.749  45.955  30.619  1.00  0.00     0.211 HD
ENDBRANCH  20  26
BRANCH  21  28
HETATM   28  O   UNL     1      46.555  43.995  32.362  1.00  0.00    -0.380 OA
HETATM   29  H   UNL     1      47.442  44.333  32.590  1.00  0.00     0.211 HD
ENDBRANCH  21  28
BRANCH  22  30
HETATM   30  O   UNL     1      43.935  43.249  33.215  1.00  0.00    -0.378 OA
HETATM   31  H   UNL     1      43.596  43.470  34.104  1.00  0.00     0.211 HD
ENDBRANCH  22  30
ENDBRANCH   1  17
TORSDOF 12
ENDMDL
MODEL 8
REMARK VINA RESULT:    -4.748      2.155      6.780
REMARK INTER + INTRA:          -8.408
REMARK INTER:                  -7.349
REMARK INTRA:                  -1.059
REMARK UNBOUND:                -1.440
REMARK  12 active torsions:
REMARK  status: ('A' for Active; 'I' for Inactive)
REMARK    1  A    between atoms: O_1  and  C_12 
REMARK    2  A    between atoms: O_1  and  C_14 
REMARK    3  A    between atoms: O_4  and  C_13 
REMARK    4  A    between atoms: O_5  and  C_16 
REMARK    5  A    between atoms: O_6  and  C_17 
REMARK    6  A    between atoms: O_7  and  C_18 
REMARK    7  A    between atoms: O_8  and  C_19 
REMARK    8  A    between atoms: O_9  and  C_21 
REMARK    9  A    between atoms: O_10  and  C_22 
REMARK   10  A    between atoms: O_11  and  C_23 
REMARK   11  A    between atoms: C_15  and  C_22 
REMARK   12  A    between atoms: C_20  and  C_23 
ROOT
HETATM    1  O   UNL     1      40.905  45.495  36.093  1.00  0.00    -0.326 OA
ENDROOT
BRANCH   1   2
HETATM    2  C   UNL     1      41.409  44.279  36.682  1.00  0.00     0.177 C 
HETATM    3  C   UNL     1      41.923  44.548  38.113  1.00  0.00     0.172 C 
HETATM    4  C   UNL     1      42.176  43.245  38.881  1.00  0.00     0.197 C 
HETATM    5  C   UNL     1      40.977  42.294  38.753  1.00  0.00     0.263 C 
HETATM    6  O   UNL     1      40.651  42.052  37.395  1.00  0.00    -0.327 OA
HETATM    7  C   UNL     1      40.256  43.261  36.726  1.00  0.00     0.177 C 
BRANCH   3   8
HETATM    8  O   UNL     1      43.152  45.295  38.056  1.00  0.00    -0.380 OA
HETATM    9  H   UNL     1      43.231  45.595  37.128  1.00  0.00     0.211 HD
ENDBRANCH   3   8
BRANCH   4  10
HETATM   10  O   UNL     1      42.406  43.527  40.273  1.00  0.00    -0.378 OA
HETATM   11  H   UNL     1      41.529  43.749  40.639  1.00  0.00     0.211 HD
ENDBRANCH   4  10
BRANCH   5  12
HETATM   12  O   UNL     1      41.332  41.053  39.349  1.00  0.00    -0.359 OA
HETATM   13  H   UNL     1      40.514  40.529  39.356  1.00  0.00     0.213 HD
ENDBRANCH   5  12
BRANCH   7  14
HETATM   14  C   UNL     1      39.811  42.869  35.312  1.00  0.00     0.170 C 
BRANCH  14  15
HETATM   15  O   UNL     1      39.492  41.478  35.280  1.00  0.00    -0.380 OA
HETATM   16  H   UNL     1      40.326  41.010  35.480  1.00  0.00     0.211 HD
ENDBRANCH  14  15
ENDBRANCH   7  14
ENDBRANCH   1   2
BRANCH   1  17
HETATM   17  C   UNL     1      41.749  46.039  35.069  1.00  0.00     0.266 C 
HETATM   18  O   UNL     1      42.723  46.892  35.659  1.00  0.00    -0.326 OA
HETATM   19  C   UNL     1      43.646  47.417  34.678  1.00  0.00     0.176 C 
HETATM   20  C   UNL     1      42.880  48.351  33.729  1.00  0.00     0.170 C 
HETATM   21  C   UNL     1      41.742  47.553  33.064  1.00  0.00     0.172 C 
HETATM   22  C   UNL     1      40.862  46.847  34.103  1.00  0.00     0.197 C 
BRANCH  19  23
HETATM   23  C   UNL     1      44.763  48.133  35.440  1.00  0.00     0.170 C 
BRANCH  23  24
HETATM   24  O   UNL     1      44.212  48.774  36.593  1.00  0.00    -0.380 OA
HETATM   25  H   UNL     1      43.483  49.351  36.285  1.00  0.00     0.211 HD
ENDBRANCH  23  24
ENDBRANCH  19  23
BRANCH  20  26
HETATM   26  O   UNL     1      42.374  49.476  34.462  1.00  0.00    -0.380 OA
HETATM   27  H   UNL     1      43.103  50.096  34.633  1.00  0.00     0.211 HD
ENDBRANCH  20  26
BRANCH  21  28
HETATM   28  O   UNL     1      40.933  48.393  32.237  1.00  0.00    -0.380 OA
HETATM   29  H   UNL     1      40.828  49.232  32.727  1.00  0.00     0.211 HD
ENDBRANCH  21  28
BRANCH  22  30
HETATM   30  O   UNL     1      39.929  45.997  33.418  1.00  0.00    -0.378 OA
HETATM   31  H   UNL     1      39.836  45.196  33.970  1.00  0.00     0.211 HD
ENDBRANCH  22  30
ENDBRANCH   1  17
TORSDOF 12
ENDMDL
MODEL 9
REMARK VINA RESULT:    -4.609      2.114      6.381
REMARK INTER + INTRA:          -8.205
REMARK INTER:                  -6.903
REMARK INTRA:                  -1.302
REMARK UNBOUND:                -1.440
REMARK  12 active torsions:
REMARK  status: ('A' for Active; 'I' for Inactive)
REMARK    1  A    between atoms: O_1  and  C_12 
REMARK    2  A    between atoms: O_1  and  C_14 
REMARK    3  A    between atoms: O_4  and  C_13 
REMARK    4  A    between atoms: O_5  and  C_16 
REMARK    5  A    between atoms: O_6  and  C_17 
REMARK    6  A    between atoms: O_7  and  C_18 
REMARK    7  A    between atoms: O_8  and  C_19 
REMARK    8  A    between atoms: O_9  and  C_21 
REMARK    9  A    between atoms: O_10  and  C_22 
REMARK   10  A    between atoms: O_11  and  C_23 
REMARK   11  A    between atoms: C_15  and  C_22 
REMARK   12  A    between atoms: C_20  and  C_23 
ROOT
HETATM    1  O   UNL     1      41.786  42.938  34.259  1.00  0.00    -0.326 OA
ENDROOT
BRANCH   1   2
HETATM    2  C   UNL     1      41.775  42.648  35.671  1.00  0.00     0.177 C 
HETATM    3  C   UNL     1      43.090  43.121  36.328  1.00  0.00     0.172 C 
HETATM    4  C   UNL     1      42.996  43.118  37.858  1.00  0.00     0.197 C 
HETATM    5  C   UNL     1      41.710  43.813  38.328  1.00  0.00     0.263 C 
HETATM    6  O   UNL     1      40.562  43.239  37.727  1.00  0.00    -0.327 OA
HETATM    7  C   UNL     1      40.584  43.394  36.298  1.00  0.00     0.177 C 
BRANCH   3   8
HETATM    8  O   UNL     1      44.169  42.255  35.931  1.00  0.00    -0.380 OA
HETATM    9  H   UNL     1      43.932  41.369  36.274  1.00  0.00     0.211 HD
ENDBRANCH   3   8
BRANCH   4  10
HETATM   10  O   UNL     1      44.131  43.795  38.426  1.00  0.00    -0.378 OA
HETATM   11  H   UNL     1      44.148  43.525  39.364  1.00  0.00     0.211 HD
ENDBRANCH   4  10
BRANCH   5  12
HETATM   12  O   UNL     1      41.603  43.642  39.736  1.00  0.00    -0.359 OA
HETATM   13  H   UNL     1      41.114  44.419  40.052  1.00  0.00     0.213 HD
ENDBRANCH   5  12
BRANCH   7  14
HETATM   14  C   UNL     1      39.251  42.854  35.766  1.00  0.00     0.170 C 
BRANCH  14  15
HETATM   15  O   UNL     1      39.414  41.497  35.355  1.00  0.00    -0.380 OA
HETATM   16  H   UNL     1      40.376  41.369  35.241  1.00  0.00     0.211 HD
ENDBRANCH  14  15
ENDBRANCH   7  14
ENDBRANCH   1   2
BRANCH   1  17
HETATM   17  C   UNL     1      42.386  44.198  33.929  1.00  0.00     0.266 C 
HETATM   18  O   UNL     1      41.371  45.126  33.561  1.00  0.00    -0.326 OA
HETATM   19  C   UNL     1      41.915  46.437  33.282  1.00  0.00     0.176 C 
HETATM   20  C   UNL     1      42.792  46.350  32.025  1.00  0.00     0.170 C 
HETATM   21  C   UNL     1      43.909  45.317  32.273  1.00  0.00     0.172 C 
HETATM   22  C   UNL     1      43.343  43.971  32.743  1.00  0.00     0.197 C 
BRANCH  19  23
HETATM   23  C   UNL     1      40.732  47.393  33.115  1.00  0.00     0.170 C 
BRANCH  23  24
HETATM   24  O   UNL     1      41.124  48.486  32.279  1.00  0.00    -0.380 OA
HETATM   25  H   UNL     1      41.351  48.115  31.402  1.00  0.00     0.211 HD
ENDBRANCH  23  24
ENDBRANCH  19  23
BRANCH  20  26
HETATM   26  O   UNL     1      41.985  45.989  30.895  1.00  0.00    -0.380 OA
HETATM   27  H   UNL     1      41.729  46.796  30.419  1.00  0.00     0.211 HD
ENDBRANCH  20  26
BRANCH  21  28
HETATM   28  O   UNL     1      44.707  45.123  31.103  1.00  0.00    -0.380 OA
HETATM   29  H   UNL     1      45.583  44.829  31.420  1.00  0.00     0.211 HD
ENDBRANCH  21  28
BRANCH  22  30
HETATM   30  O   UNL     1      44.433  43.112  33.110  1.00  0.00    -0.378 OA
HETATM   31  H   UNL     1      44.331  42.301  32.575  1.00  0.00     0.211 HD
ENDBRANCH  22  30
ENDBRANCH   1  17
TORSDOF 12
ENDMDL
MODEL 10
REMARK VINA RESULT:    -4.584      2.048      5.757
REMARK INTER + INTRA:          -8.167
REMARK INTER:                  -6.747
REMARK INTRA:                  -1.419
REMARK UNBOUND:                -1.440
REMARK  12 active torsions:
REMARK  status: ('A' for Active; 'I' for Inactive)
REMARK    1  A    between atoms: O_1  and  C_12 
REMARK    2  A    between atoms: O_1  and  C_14 
REMARK    3  A    between atoms: O_4  and  C_13 
REMARK    4  A    between atoms: O_5  and  C_16 
REMARK    5  A    between atoms: O_6  and  C_17 
REMARK    6  A    between atoms: O_7  and  C_18 
REMARK    7  A    between atoms: O_8  and  C_19 
REMARK    8  A    between atoms: O_9  and  C_21 
REMARK    9  A    between atoms: O_10  and  C_22 
REMARK   10  A    between atoms: O_11  and  C_23 
REMARK   11  A    between atoms: C_15  and  C_22 
REMARK   12  A    between atoms: C_20  and  C_23 
ROOT
HETATM    1  O   UNL     1      41.732  45.833  36.411  1.00  0.00    -0.326 OA
ENDROOT
BRANCH   1   2
HETATM    2  C   UNL     1      41.381  44.546  36.959  1.00  0.00     0.177 C 
HETATM    3  C   UNL     1      40.536  43.743  35.947  1.00  0.00     0.172 C 
HETATM    4  C   UNL     1      40.407  42.271  36.354  1.00  0.00     0.197 C 
HETATM    5  C   UNL     1      41.777  41.682  36.719  1.00  0.00     0.263 C 
HETATM    6  O   UNL     1      42.422  42.453  37.719  1.00  0.00    -0.327 OA
HETATM    7  C   UNL     1      42.686  43.789  37.263  1.00  0.00     0.177 C 
BRANCH   3   8
HETATM    8  O   UNL     1      39.218  44.313  35.854  1.00  0.00    -0.380 OA
HETATM    9  H   UNL     1      39.355  45.241  35.575  1.00  0.00     0.211 HD
ENDBRANCH   3   8
BRANCH   4  10
HETATM   10  O   UNL     1      39.838  41.506  35.277  1.00  0.00    -0.378 OA
HETATM   11  H   UNL     1      40.520  41.499  34.578  1.00  0.00     0.211 HD
ENDBRANCH   4  10
BRANCH   5  12
HETATM   12  O   UNL     1      41.573  40.372  37.235  1.00  0.00    -0.359 OA
HETATM   13  H   UNL     1      40.682  40.119  36.945  1.00  0.00     0.213 HD
ENDBRANCH   5  12
BRANCH   7  14
HETATM   14  C   UNL     1      43.488  44.491  38.365  1.00  0.00     0.170 C 
BRANCH  14  15
HETATM   15  O   UNL     1      44.120  45.654  37.831  1.00  0.00    -0.380 OA
HETATM   16  H   UNL     1      44.010  46.350  38.508  1.00  0.00     0.211 HD
ENDBRANCH  14  15
ENDBRANCH   7  14
ENDBRANCH   1   2
BRANCH   1  17
HETATM   17  C   UNL     1      41.935  45.824  34.991  1.00  0.00     0.266 C 
HETATM   18  O   UNL     1      43.329  45.886  34.710  1.00  0.00    -0.326 OA
HETATM   19  C   UNL     1      43.597  45.812  33.291  1.00  0.00     0.176 C 
HETATM   20  C   UNL     1      43.040  47.075  32.617  1.00  0.00     0.170 C 
HETATM   21  C   UNL     1      41.528  47.161  32.903  1.00  0.00     0.172 C 
HETATM   22  C   UNL     1      41.228  47.060  34.404  1.00  0.00     0.197 C 
BRANCH  19  23
HETATM   23  C   UNL     1      45.111  45.667  33.120  1.00  0.00     0.170 C 
BRANCH  23  24
HETATM   24  O   UNL     1      45.495  46.200  31.850  1.00  0.00    -0.380 OA
HETATM   25  H   UNL     1      45.047  45.665  31.162  1.00  0.00     0.211 HD
ENDBRANCH  23  24
ENDBRANCH  19  23
BRANCH  20  26
HETATM   26  O   UNL     1      43.734  48.231  33.108  1.00  0.00    -0.380 OA
HETATM   27  H   UNL     1      44.691  48.070  33.059  1.00  0.00     0.211 HD
ENDBRANCH  20  26
BRANCH  21  28
HETATM   28  O   UNL     1      40.968  48.367  32.379  1.00  0.00    -0.380 OA
HETATM   29  H   UNL     1      40.081  48.130  32.045  1.00  0.00     0.211 HD
ENDBRANCH  21  28
BRANCH  22  30
HETATM   30  O   UNL     1      39.806  46.983  34.588  1.00  0.00    -0.378 OA
HETATM   31  H   UNL     1      39.493  47.905  34.672  1.00  0.00     0.211 HD
ENDBRANCH  22  30
ENDBRANCH   1  17
TORSDOF 12
ENDMDL
