MODEL 1
REMARK VINA RESULT:    -5.294      0.000      0.000
REMARK INTER + INTRA:          -9.251
REMARK INTER:                  -7.771
REMARK INTRA:                  -1.479
REMARK UNBOUND:                -1.481
REMARK  12 active torsions:
REMARK  status: ('A' for Active; 'I' for Inactive)
REMARK    1  A    between atoms: O_1  and  C_12 
REMARK    2  A    between atoms: O_1  and  C_14 
REMARK    3  A    between atoms: O_4  and  C_13 
REMARK    4  A    between atoms: O_5  and  C_16 
REMARK    5  A    between atoms: O_6  and  C_17 
REMARK    6  A    between atoms: O_7  and  C_18 
REMARK    7  A    between atoms: O_8  and  C_19 
REMARK    8  A    between atoms: O_9  and  C_21 
REMARK    9  A    between atoms: O_10  and  C_22 
REMARK   10  A    between atoms: O_11  and  C_23 
REMARK   11  A    between atoms: C_15  and  C_22 
REMARK   12  A    between atoms: C_20  and  C_23 
ROOT
HETATM    1  O   UNL     1      41.266  43.140  34.602  1.00  0.00    -0.326 OA
ENDROOT
BRANCH   1   2
HETATM    2  C   UNL     1      41.084  43.049  36.030  1.00  0.00     0.177 C 
HETATM    3  C   UNL     1      39.652  43.477  36.418  1.00  0.00     0.172 C 
HETATM    4  C   UNL     1      39.318  43.103  37.867  1.00  0.00     0.197 C 
HETATM    5  C   UNL     1      39.698  41.643  38.156  1.00  0.00     0.263 C 
HETATM    6  O   UNL     1      41.057  41.390  37.844  1.00  0.00    -0.327 OA
HETATM    7  C   UNL     1      41.320  41.586  36.445  1.00  0.00     0.177 C 
BRANCH   3   8
HETATM    8  O   UNL     1      39.512  44.901  36.266  1.00  0.00    -0.380 OA
HETATM    9  H   UNL     1      39.341  45.243  37.167  1.00  0.00     0.211 HD
ENDBRANCH   3   8
BRANCH   4  10
HETATM   10  O   UNL     1      37.913  43.282  38.115  1.00  0.00    -0.378 OA
HETATM   11  H   UNL     1      37.464  42.909  37.332  1.00  0.00     0.211 HD
ENDBRANCH   4  10
BRANCH   5  12
HETATM   12  O   UNL     1      39.513  41.405  39.546  1.00  0.00    -0.359 OA
HETATM   13  H   UNL     1      39.484  40.439  39.638  1.00  0.00     0.213 HD
ENDBRANCH   5  12
BRANCH   7  14
HETATM   14  C   UNL     1      42.775  41.169  36.198  1.00  0.00     0.170 C 
BRANCH  14  15
HETATM   15  O   UNL     1      42.896  40.607  34.891  1.00  0.00    -0.380 OA
HETATM   16  H   UNL     1      42.590  39.683  34.971  1.00  0.00     0.211 HD
ENDBRANCH  14  15
ENDBRANCH   7  14
ENDBRANCH   1   2
BRANCH   1  17
HETATM   17  C   UNL     1      42.079  44.247  34.190  1.00  0.00     0.266 C 
HETATM   18  O   UNL     1      41.245  45.348  33.848  1.00  0.00    -0.326 OA
HETATM   19  C   UNL     1      42.016  46.517  33.487  1.00  0.00     0.176 C 
HETATM   20  C   UNL     1      42.776  46.226  32.184  1.00  0.00     0.170 C 
HETATM   21  C   UNL     1      43.682  44.998  32.406  1.00  0.00     0.172 C 
HETATM   22  C   UNL     1      42.893  43.804  32.959  1.00  0.00     0.197 C 
BRANCH  19  23
HETATM   23  C   UNL     1      41.037  47.685  33.353  1.00  0.00     0.170 C 
BRANCH  23  24
HETATM   24  O   UNL     1      41.508  48.583  32.345  1.00  0.00    -0.380 OA
HETATM   25  H   UNL     1      40.772  48.725  31.714  1.00  0.00     0.211 HD
ENDBRANCH  23  24
ENDBRANCH  19  23
BRANCH  20  26
HETATM   26  O   UNL     1      41.842  46.003  31.119  1.00  0.00    -0.380 OA
HETATM   27  H   UNL     1      40.944  46.191  31.441  1.00  0.00     0.211 HD
ENDBRANCH  20  26
BRANCH  21  28
HETATM   28  O   UNL     1      44.347  44.619  31.199  1.00  0.00    -0.380 OA
HETATM   29  H   UNL     1      45.299  44.588  31.415  1.00  0.00     0.211 HD
ENDBRANCH  21  28
BRANCH  22  30
HETATM   30  O   UNL     1      43.815  42.756  33.294  1.00  0.00    -0.378 OA
HETATM   31  H   UNL     1      43.352  42.181  33.934  1.00  0.00     0.211 HD
ENDBRANCH  22  30
ENDBRANCH   1  17
TORSDOF 12
ENDMDL
MODEL 2
REMARK VINA RESULT:    -5.210      2.330      4.011
REMARK INTER + INTRA:          -9.127
REMARK INTER:                  -7.617
REMARK INTRA:                  -1.510
REMARK UNBOUND:                -1.481
REMARK  12 active torsions:
REMARK  status: ('A' for Active; 'I' for Inactive)
REMARK    1  A    between atoms: O_1  and  C_12 
REMARK    2  A    between atoms: O_1  and  C_14 
REMARK    3  A    between atoms: O_4  and  C_13 
REMARK    4  A    between atoms: O_5  and  C_16 
REMARK    5  A    between atoms: O_6  and  C_17 
REMARK    6  A    between atoms: O_7  and  C_18 
REMARK    7  A    between atoms: O_8  and  C_19 
REMARK    8  A    between atoms: O_9  and  C_21 
REMARK    9  A    between atoms: O_10  and  C_22 
REMARK   10  A    between atoms: O_11  and  C_23 
REMARK   11  A    between atoms: C_15  and  C_22 
REMARK   12  A    between atoms: C_20  and  C_23 
ROOT
HETATM    1  O   UNL     1      41.440  45.053  32.565  1.00  0.00    -0.326 OA
ENDROOT
BRANCH   1   2
HETATM    2  C   UNL     1      40.570  45.121  33.713  1.00  0.00     0.177 C 
HETATM    3  C   UNL     1      41.259  44.502  34.948  1.00  0.00     0.172 C 
HETATM    4  C   UNL     1      40.508  44.829  36.244  1.00  0.00     0.197 C 
HETATM    5  C   UNL     1      40.183  46.327  36.323  1.00  0.00     0.263 C 
HETATM    6  O   UNL     1      39.474  46.765  35.176  1.00  0.00    -0.327 OA
HETATM    7  C   UNL     1      40.256  46.603  33.982  1.00  0.00     0.177 C 
BRANCH   3   8
HETATM    8  O   UNL     1      41.324  43.071  34.802  1.00  0.00    -0.380 OA
HETATM    9  H   UNL     1      40.796  42.710  35.542  1.00  0.00     0.211 HD
ENDBRANCH   3   8
BRANCH   4  10
HETATM   10  O   UNL     1      41.302  44.459  37.385  1.00  0.00    -0.378 OA
HETATM   11  H   UNL     1      40.661  44.160  38.058  1.00  0.00     0.211 HD
ENDBRANCH   4  10
BRANCH   5  12
HETATM   12  O   UNL     1      39.356  46.541  37.460  1.00  0.00    -0.359 OA
HETATM   13  H   UNL     1      39.317  45.683  37.914  1.00  0.00     0.213 HD
ENDBRANCH   5  12
BRANCH   7  14
HETATM   14  C   UNL     1      39.451  47.216  32.830  1.00  0.00     0.170 C 
BRANCH  14  15
HETATM   15  O   UNL     1      40.304  48.039  32.034  1.00  0.00    -0.380 OA
HETATM   16  H   UNL     1      41.189  47.630  32.086  1.00  0.00     0.211 HD
ENDBRANCH  14  15
ENDBRANCH   7  14
ENDBRANCH   1   2
BRANCH   1  17
HETATM   17  C   UNL     1      42.767  45.536  32.812  1.00  0.00     0.266 C 
HETATM   18  O   UNL     1      42.937  46.802  32.185  1.00  0.00    -0.326 OA
HETATM   19  C   UNL     1      44.239  47.369  32.458  1.00  0.00     0.176 C 
HETATM   20  C   UNL     1      45.310  46.493  31.791  1.00  0.00     0.170 C 
HETATM   21  C   UNL     1      45.190  45.060  32.347  1.00  0.00     0.172 C 
HETATM   22  C   UNL     1      43.760  44.519  32.218  1.00  0.00     0.197 C 
BRANCH  19  23
HETATM   23  C   UNL     1      44.232  48.804  31.925  1.00  0.00     0.170 C 
BRANCH  23  24
HETATM   24  O   UNL     1      42.919  49.353  32.065  1.00  0.00    -0.380 OA
HETATM   25  H   UNL     1      42.892  50.180  31.540  1.00  0.00     0.211 HD
ENDBRANCH  23  24
ENDBRANCH  19  23
BRANCH  20  26
HETATM   26  O   UNL     1      45.139  46.520  30.367  1.00  0.00    -0.380 OA
HETATM   27  H   UNL     1      45.328  45.637  30.009  1.00  0.00     0.211 HD
ENDBRANCH  20  26
BRANCH  21  28
HETATM   28  O   UNL     1      46.102  44.173  31.694  1.00  0.00    -0.380 OA
HETATM   29  H   UNL     1      46.533  44.698  30.993  1.00  0.00     0.211 HD
ENDBRANCH  21  28
BRANCH  22  30
HETATM   30  O   UNL     1      43.680  43.256  32.896  1.00  0.00    -0.378 OA
HETATM   31  H   UNL     1      44.541  43.132  33.340  1.00  0.00     0.211 HD
ENDBRANCH  22  30
ENDBRANCH   1  17
TORSDOF 12
ENDMDL
MODEL 3
REMARK VINA RESULT:    -5.169      1.922      6.081
REMARK INTER + INTRA:          -9.068
REMARK INTER:                  -7.553
REMARK INTRA:                  -1.515
REMARK UNBOUND:                -1.481
REMARK  12 active torsions:
REMARK  status: ('A' for Active; 'I' for Inactive)
REMARK    1  A    between atoms: O_1  and  C_12 
REMARK    2  A    between atoms: O_1  and  C_14 
REMARK    3  A    between atoms: O_4  and  C_13 
REMARK    4  A    between atoms: O_5  and  C_16 
REMARK    5  A    between atoms: O_6  and  C_17 
REMARK    6  A    between atoms: O_7  and  C_18 
REMARK    7  A    between atoms: O_8  and  C_19 
REMARK    8  A    between atoms: O_9  and  C_21 
REMARK    9  A    between atoms: O_10  and  C_22 
REMARK   10  A    between atoms: O_11  and  C_23 
REMARK   11  A    between atoms: C_15  and  C_22 
REMARK   12  A    between atoms: C_20  and  C_23 
ROOT
HETATM    1  O   UNL     1      41.456  43.463  34.211  1.00  0.00    -0.326 OA
ENDROOT
BRANCH   1   2
HETATM    2  C   UNL     1      41.347  44.620  33.357  1.00  0.00     0.177 C 
HETATM    3  C   UNL     1      40.064  45.413  33.685  1.00  0.00     0.172 C 
HETATM    4  C   UNL     1      40.066  46.798  33.029  1.00  0.00     0.197 C 
HETATM    5  C   UNL     1      41.398  47.520  33.279  1.00  0.00     0.263 C 
HETATM    6  O   UNL     1      42.500  46.734  32.859  1.00  0.00    -0.327 OA
HETATM    7  C   UNL     1      42.582  45.506  33.601  1.00  0.00     0.177 C 
BRANCH   3   8
HETATM    8  O   UNL     1      38.911  44.685  33.223  1.00  0.00    -0.380 OA
HETATM    9  H   UNL     1      39.251  43.812  32.942  1.00  0.00     0.211 HD
ENDBRANCH   3   8
BRANCH   4  10
HETATM   10  O   UNL     1      38.991  47.598  33.553  1.00  0.00    -0.378 OA
HETATM   11  H   UNL     1      38.261  47.499  32.912  1.00  0.00     0.211 HD
ENDBRANCH   4  10
BRANCH   5  12
HETATM   12  O   UNL     1      41.399  48.722  32.520  1.00  0.00    -0.359 OA
HETATM   13  H   UNL     1      40.547  48.732  32.054  1.00  0.00     0.213 HD
ENDBRANCH   5  12
BRANCH   7  14
HETATM   14  C   UNL     1      43.867  44.797  33.157  1.00  0.00     0.170 C 
BRANCH  14  15
HETATM   15  O   UNL     1      44.355  43.980  34.221  1.00  0.00    -0.380 OA
HETATM   16  H   UNL     1      45.320  43.916  34.083  1.00  0.00     0.211 HD
ENDBRANCH  14  15
ENDBRANCH   7  14
ENDBRANCH   1   2
BRANCH   1  17
HETATM   17  C   UNL     1      41.045  43.700  35.564  1.00  0.00     0.266 C 
HETATM   18  O   UNL     1      42.194  43.816  36.396  1.00  0.00    -0.326 OA
HETATM   19  C   UNL     1      41.840  44.123  37.765  1.00  0.00     0.176 C 
HETATM   20  C   UNL     1      41.088  42.924  38.361  1.00  0.00     0.170 C 
HETATM   21  C   UNL     1      39.837  42.651  37.502  1.00  0.00     0.172 C 
HETATM   22  C   UNL     1      40.191  42.500  36.017  1.00  0.00     0.197 C 
BRANCH  19  23
HETATM   23  C   UNL     1      43.139  44.438  38.511  1.00  0.00     0.170 C 
BRANCH  23  24
HETATM   24  O   UNL     1      43.003  44.047  39.880  1.00  0.00    -0.380 OA
HETATM   25  H   UNL     1      42.109  44.322  40.174  1.00  0.00     0.211 HD
ENDBRANCH  23  24
ENDBRANCH  19  23
BRANCH  20  26
HETATM   26  O   UNL     1      41.954  41.782  38.405  1.00  0.00    -0.380 OA
HETATM   27  H   UNL     1      42.874  42.079  38.311  1.00  0.00     0.211 HD
ENDBRANCH  20  26
BRANCH  21  28
HETATM   28  O   UNL     1      39.142  41.486  37.953  1.00  0.00    -0.380 OA
HETATM   29  H   UNL     1      38.790  41.054  37.150  1.00  0.00     0.211 HD
ENDBRANCH  21  28
BRANCH  22  30
HETATM   30  O   UNL     1      38.975  42.411  35.258  1.00  0.00    -0.378 OA
HETATM   31  H   UNL     1      38.536  43.279  35.347  1.00  0.00     0.211 HD
ENDBRANCH  22  30
ENDBRANCH   1  17
TORSDOF 12
ENDMDL
MODEL 4
REMARK VINA RESULT:    -5.076      1.787      3.941
REMARK INTER + INTRA:          -8.931
REMARK INTER:                  -7.464
REMARK INTRA:                  -1.467
REMARK UNBOUND:                -1.481
REMARK  12 active torsions:
REMARK  status: ('A' for Active; 'I' for Inactive)
REMARK    1  A    between atoms: O_1  and  C_12 
REMARK    2  A    between atoms: O_1  and  C_14 
REMARK    3  A    between atoms: O_4  and  C_13 
REMARK    4  A    between atoms: O_5  and  C_16 
REMARK    5  A    between atoms: O_6  and  C_17 
REMARK    6  A    between atoms: O_7  and  C_18 
REMARK    7  A    between atoms: O_8  and  C_19 
REMARK    8  A    between atoms: O_9  and  C_21 
REMARK    9  A    between atoms: O_10  and  C_22 
REMARK   10  A    between atoms: O_11  and  C_23 
REMARK   11  A    between atoms: C_15  and  C_22 
REMARK   12  A    between atoms: C_20  and  C_23 
ROOT
HETATM    1  O   UNL     1      41.325  44.509  36.847  1.00  0.00    -0.326 OA
ENDROOT
BRANCH   1   2
HETATM    2  C   UNL     1      41.318  43.080  37.047  1.00  0.00     0.177 C 
HETATM    3  C   UNL     1      42.755  42.560  37.262  1.00  0.00     0.172 C 
HETATM    4  C   UNL     1      42.767  41.118  37.783  1.00  0.00     0.197 C 
HETATM    5  C   UNL     1      41.797  40.955  38.963  1.00  0.00     0.263 C 
HETATM    6  O   UNL     1      40.490  41.383  38.622  1.00  0.00    -0.327 OA
HETATM    7  C   UNL     1      40.465  42.782  38.293  1.00  0.00     0.177 C 
BRANCH   3   8
HETATM    8  O   UNL     1      43.480  42.606  36.020  1.00  0.00    -0.380 OA
HETATM    9  H   UNL     1      42.971  42.044  35.401  1.00  0.00     0.211 HD
ENDBRANCH   3   8
BRANCH   4  10
HETATM   10  O   UNL     1      44.092  40.755  38.209  1.00  0.00    -0.378 OA
HETATM   11  H   UNL     1      44.005  39.857  38.582  1.00  0.00     0.211 HD
ENDBRANCH   4  10
BRANCH   5  12
HETATM   12  O   UNL     1      41.736  39.574  39.297  1.00  0.00    -0.359 OA
HETATM   13  H   UNL     1      42.305  39.474  40.078  1.00  0.00     0.213 HD
ENDBRANCH   5  12
BRANCH   7  14
HETATM   14  C   UNL     1      38.998  43.164  38.063  1.00  0.00     0.170 C 
BRANCH  14  15
HETATM   15  O   UNL     1      38.798  44.532  38.417  1.00  0.00    -0.380 OA
HETATM   16  H   UNL     1      37.835  44.634  38.546  1.00  0.00     0.211 HD
ENDBRANCH  14  15
ENDBRANCH   7  14
ENDBRANCH   1   2
BRANCH   1  17
HETATM   17  C   UNL     1      40.886  44.915  35.544  1.00  0.00     0.266 C 
HETATM   18  O   UNL     1      41.914  44.657  34.593  1.00  0.00    -0.326 OA
HETATM   19  C   UNL     1      41.500  44.986  33.248  1.00  0.00     0.176 C 
HETATM   20  C   UNL     1      41.297  46.506  33.151  1.00  0.00     0.170 C 
HETATM   21  C   UNL     1      40.237  46.928  34.188  1.00  0.00     0.172 C 
HETATM   22  C   UNL     1      40.587  46.425  35.594  1.00  0.00     0.197 C 
BRANCH  19  23
HETATM   23  C   UNL     1      42.584  44.472  32.299  1.00  0.00     0.170 C 
BRANCH  23  24
HETATM   24  O   UNL     1      42.498  45.176  31.057  1.00  0.00    -0.380 OA
HETATM   25  H   UNL     1      42.176  46.080  31.257  1.00  0.00     0.211 HD
ENDBRANCH  23  24
ENDBRANCH  19  23
BRANCH  20  26
HETATM   26  O   UNL     1      42.545  47.176  33.374  1.00  0.00    -0.380 OA
HETATM   27  H   UNL     1      42.369  48.070  33.710  1.00  0.00     0.211 HD
ENDBRANCH  20  26
BRANCH  21  28
HETATM   28  O   UNL     1      40.071  48.348  34.211  1.00  0.00    -0.380 OA
HETATM   29  H   UNL     1      39.466  48.560  33.473  1.00  0.00     0.211 HD
ENDBRANCH  21  28
BRANCH  22  30
HETATM   30  O   UNL     1      39.489  46.710  36.474  1.00  0.00    -0.378 OA
HETATM   31  H   UNL     1      39.584  47.647  36.733  1.00  0.00     0.211 HD
ENDBRANCH  22  30
ENDBRANCH   1  17
TORSDOF 12
ENDMDL
MODEL 5
REMARK VINA RESULT:    -5.070      2.380      4.591
REMARK INTER + INTRA:          -8.922
REMARK INTER:                  -7.441
REMARK INTRA:                  -1.481
REMARK UNBOUND:                -1.481
REMARK  12 active torsions:
REMARK  status: ('A' for Active; 'I' for Inactive)
REMARK    1  A    between atoms: O_1  and  C_12 
REMARK    2  A    between atoms: O_1  and  C_14 
REMARK    3  A    between atoms: O_4  and  C_13 
REMARK    4  A    between atoms: O_5  and  C_16 
REMARK    5  A    between atoms: O_6  and  C_17 
REMARK    6  A    between atoms: O_7  and  C_18 
REMARK    7  A    between atoms: O_8  and  C_19 
REMARK    8  A    between atoms: O_9  and  C_21 
REMARK    9  A    between atoms: O_10  and  C_22 
REMARK   10  A    between atoms: O_11  and  C_23 
REMARK   11  A    between atoms: C_15  and  C_22 
REMARK   12  A    between atoms: C_20  and  C_23 
ROOT
HETATM    1  O   UNL     1      41.899  46.317  34.351  1.00  0.00    -0.326 OA
ENDROOT
BRANCH   1   2
HETATM    2  C   UNL     1      41.458  44.954  34.189  1.00  0.00     0.177 C 
HETATM    3  C   UNL     1      42.199  44.028  35.178  1.00  0.00     0.172 C 
HETATM    4  C   UNL     1      41.548  42.642  35.258  1.00  0.00     0.197 C 
HETATM    5  C   UNL     1      40.028  42.762  35.442  1.00  0.00     0.263 C 
HETATM    6  O   UNL     1      39.445  43.563  34.429  1.00  0.00    -0.327 OA
HETATM    7  C   UNL     1      39.946  44.909  34.470  1.00  0.00     0.177 C 
BRANCH   3   8
HETATM    8  O   UNL     1      43.568  43.869  34.763  1.00  0.00    -0.380 OA
HETATM    9  H   UNL     1      43.951  44.770  34.781  1.00  0.00     0.211 HD
ENDBRANCH   3   8
BRANCH   4  10
HETATM   10  O   UNL     1      42.098  41.898  36.359  1.00  0.00    -0.378 OA
HETATM   11  H   UNL     1      42.447  42.570  36.975  1.00  0.00     0.211 HD
ENDBRANCH   4  10
BRANCH   5  12
HETATM   12  O   UNL     1      39.466  41.459  35.352  1.00  0.00    -0.359 OA
HETATM   13  H   UNL     1      39.744  41.120  34.485  1.00  0.00     0.213 HD
ENDBRANCH   5  12
BRANCH   7  14
HETATM   14  C   UNL     1      39.166  45.712  33.421  1.00  0.00     0.170 C 
BRANCH  14  15
HETATM   15  O   UNL     1      39.101  47.081  33.818  1.00  0.00    -0.380 OA
HETATM   16  H   UNL     1      38.667  47.551  33.079  1.00  0.00     0.211 HD
ENDBRANCH  14  15
ENDBRANCH   7  14
ENDBRANCH   1   2
BRANCH   1  17
HETATM   17  C   UNL     1      42.840  46.745  33.358  1.00  0.00     0.266 C 
HETATM   18  O   UNL     1      44.164  46.518  33.827  1.00  0.00    -0.326 OA
HETATM   19  C   UNL     1      45.156  46.870  32.835  1.00  0.00     0.176 C 
HETATM   20  C   UNL     1      45.112  48.389  32.611  1.00  0.00     0.170 C 
HETATM   21  C   UNL     1      43.693  48.779  32.153  1.00  0.00     0.172 C 
HETATM   22  C   UNL     1      42.622  48.251  33.116  1.00  0.00     0.197 C 
BRANCH  19  23
HETATM   23  C   UNL     1      46.512  46.387  33.355  1.00  0.00     0.170 C 
BRANCH  23  24
HETATM   24  O   UNL     1      46.307  45.330  34.296  1.00  0.00    -0.380 OA
HETATM   25  H   UNL     1      45.481  44.869  34.040  1.00  0.00     0.211 HD
ENDBRANCH  23  24
ENDBRANCH  19  23
BRANCH  20  26
HETATM   26  O   UNL     1      45.479  49.068  33.820  1.00  0.00    -0.380 OA
HETATM   27  H   UNL     1      44.717  49.076  34.422  1.00  0.00     0.211 HD
ENDBRANCH  20  26
BRANCH  21  28
HETATM   28  O   UNL     1      43.563  50.196  32.017  1.00  0.00    -0.380 OA
HETATM   29  H   UNL     1      43.960  50.421  31.153  1.00  0.00     0.211 HD
ENDBRANCH  21  28
BRANCH  22  30
HETATM   30  O   UNL     1      41.326  48.506  32.552  1.00  0.00    -0.378 OA
HETATM   31  H   UNL     1      40.858  47.648  32.550  1.00  0.00     0.211 HD
ENDBRANCH  22  30
ENDBRANCH   1  17
TORSDOF 12
ENDMDL
MODEL 6
REMARK VINA RESULT:    -5.054      1.992      6.465
REMARK INTER + INTRA:          -8.898
REMARK INTER:                  -7.517
REMARK INTRA:                  -1.381
REMARK UNBOUND:                -1.481
REMARK  12 active torsions:
REMARK  status: ('A' for Active; 'I' for Inactive)
REMARK    1  A    between atoms: O_1  and  C_12 
REMARK    2  A    between atoms: O_1  and  C_14 
REMARK    3  A    between atoms: O_4  and  C_13 
REMARK    4  A    between atoms: O_5  and  C_16 
REMARK    5  A    between atoms: O_6  and  C_17 
REMARK    6  A    between atoms: O_7  and  C_18 
REMARK    7  A    between atoms: O_8  and  C_19 
REMARK    8  A    between atoms: O_9  and  C_21 
REMARK    9  A    between atoms: O_10  and  C_22 
REMARK   10  A    between atoms: O_11  and  C_23 
REMARK   11  A    between atoms: C_15  and  C_22 
REMARK   12  A    between atoms: C_20  and  C_23 
ROOT
HETATM    1  O   UNL     1      41.001  45.934  36.346  1.00  0.00    -0.326 OA
ENDROOT
BRANCH   1   2
HETATM    2  C   UNL     1      41.602  46.167  35.055  1.00  0.00     0.177 C 
HETATM    3  C   UNL     1      40.514  46.270  33.966  1.00  0.00     0.172 C 
HETATM    4  C   UNL     1      41.075  46.820  32.649  1.00  0.00     0.197 C 
HETATM    5  C   UNL     1      41.915  48.082  32.898  1.00  0.00     0.263 C 
HETATM    6  O   UNL     1      42.936  47.844  33.851  1.00  0.00    -0.327 OA
HETATM    7  C   UNL     1      42.389  47.487  35.131  1.00  0.00     0.177 C 
BRANCH   3   8
HETATM    8  O   UNL     1      39.949  44.969  33.717  1.00  0.00    -0.380 OA
HETATM    9  H   UNL     1      38.997  45.055  33.927  1.00  0.00     0.211 HD
ENDBRANCH   3   8
BRANCH   4  10
HETATM   10  O   UNL     1      40.002  47.139  31.747  1.00  0.00    -0.378 OA
HETATM   11  H   UNL     1      39.612  47.965  32.093  1.00  0.00     0.211 HD
ENDBRANCH   4  10
BRANCH   5  12
HETATM   12  O   UNL     1      42.532  48.451  31.672  1.00  0.00    -0.359 OA
HETATM   13  H   UNL     1      43.486  48.345  31.823  1.00  0.00     0.213 HD
ENDBRANCH   5  12
BRANCH   7  14
HETATM   14  C   UNL     1      43.565  47.375  36.108  1.00  0.00     0.170 C 
BRANCH  14  15
HETATM   15  O   UNL     1      44.102  46.053  36.061  1.00  0.00    -0.380 OA
HETATM   16  H   UNL     1      45.055  46.161  35.878  1.00  0.00     0.211 HD
ENDBRANCH  14  15
ENDBRANCH   7  14
ENDBRANCH   1   2
BRANCH   1  17
HETATM   17  C   UNL     1      41.240  44.621  36.869  1.00  0.00     0.266 C 
HETATM   18  O   UNL     1      41.883  43.824  35.881  1.00  0.00    -0.326 OA
HETATM   19  C   UNL     1      42.209  42.506  36.379  1.00  0.00     0.176 C 
HETATM   20  C   UNL     1      40.903  41.746  36.656  1.00  0.00     0.170 C 
HETATM   21  C   UNL     1      40.074  42.547  37.679  1.00  0.00     0.172 C 
HETATM   22  C   UNL     1      39.877  44.002  37.234  1.00  0.00     0.197 C 
BRANCH  19  23
HETATM   23  C   UNL     1      43.079  41.823  35.322  1.00  0.00     0.170 C 
BRANCH  23  24
HETATM   24  O   UNL     1      42.687  40.453  35.201  1.00  0.00    -0.380 OA
HETATM   25  H   UNL     1      41.941  40.308  35.819  1.00  0.00     0.211 HD
ENDBRANCH  23  24
ENDBRANCH  19  23
BRANCH  20  26
HETATM   26  O   UNL     1      40.184  41.558  35.429  1.00  0.00    -0.380 OA
HETATM   27  H   UNL     1      40.669  41.991  34.708  1.00  0.00     0.211 HD
ENDBRANCH  20  26
BRANCH  21  28
HETATM   28  O   UNL     1      38.802  41.936  37.908  1.00  0.00    -0.380 OA
HETATM   29  H   UNL     1      38.237  42.630  38.301  1.00  0.00     0.211 HD
ENDBRANCH  21  28
BRANCH  22  30
HETATM   30  O   UNL     1      39.243  44.729  38.298  1.00  0.00    -0.378 OA
HETATM   31  H   UNL     1      39.943  44.918  38.952  1.00  0.00     0.211 HD
ENDBRANCH  22  30
ENDBRANCH   1  17
TORSDOF 12
ENDMDL
MODEL 7
REMARK VINA RESULT:    -5.000      1.942      3.309
REMARK INTER + INTRA:          -8.819
REMARK INTER:                  -7.280
REMARK INTRA:                  -1.539
REMARK UNBOUND:                -1.481
REMARK  12 active torsions:
REMARK  status: ('A' for Active; 'I' for Inactive)
REMARK    1  A    between atoms: O_1  and  C_12 
REMARK    2  A    between atoms: O_1  and  C_14 
REMARK    3  A    between atoms: O_4  and  C_13 
REMARK    4  A    between atoms: O_5  and  C_16 
REMARK    5  A    between atoms: O_6  and  C_17 
REMARK    6  A    between atoms: O_7  and  C_18 
REMARK    7  A    between atoms: O_8  and  C_19 
REMARK    8  A    between atoms: O_9  and  C_21 
REMARK    9  A    between atoms: O_10  and  C_22 
REMARK   10  A    between atoms: O_11  and  C_23 
REMARK   11  A    between atoms: C_15  and  C_22 
REMARK   12  A    between atoms: C_20  and  C_23 
ROOT
HETATM    1  O   UNL     1      41.762  45.667  36.739  1.00  0.00    -0.326 OA
ENDROOT
BRANCH   1   2
HETATM    2  C   UNL     1      41.671  44.484  37.560  1.00  0.00     0.177 C 
HETATM    3  C   UNL     1      40.282  43.828  37.406  1.00  0.00     0.172 C 
HETATM    4  C   UNL     1      40.247  42.418  38.007  1.00  0.00     0.197 C 
HETATM    5  C   UNL     1      41.450  41.591  37.530  1.00  0.00     0.263 C 
HETATM    6  O   UNL     1      42.674  42.252  37.802  1.00  0.00    -0.327 OA
HETATM    7  C   UNL     1      42.763  43.503  37.099  1.00  0.00     0.177 C 
BRANCH   3   8
HETATM    8  O   UNL     1      39.288  44.634  38.065  1.00  0.00    -0.380 OA
HETATM    9  H   UNL     1      38.429  44.226  37.836  1.00  0.00     0.211 HD
ENDBRANCH   3   8
BRANCH   4  10
HETATM   10  O   UNL     1      39.034  41.746  37.628  1.00  0.00    -0.378 OA
HETATM   11  H   UNL     1      39.314  40.864  37.318  1.00  0.00     0.211 HD
ENDBRANCH   4  10
BRANCH   5  12
HETATM   12  O   UNL     1      41.448  40.358  38.239  1.00  0.00    -0.359 OA
HETATM   13  H   UNL     1      42.180  40.426  38.874  1.00  0.00     0.213 HD
ENDBRANCH   5  12
BRANCH   7  14
HETATM   14  C   UNL     1      44.163  44.069  37.364  1.00  0.00     0.170 C 
BRANCH  14  15
HETATM   15  O   UNL     1      44.565  44.886  36.265  1.00  0.00    -0.380 OA
HETATM   16  H   UNL     1      45.529  44.756  36.177  1.00  0.00     0.211 HD
ENDBRANCH  14  15
ENDBRANCH   7  14
ENDBRANCH   1   2
BRANCH   1  17
HETATM   17  C   UNL     1      41.184  45.515  35.436  1.00  0.00     0.266 C 
HETATM   18  O   UNL     1      42.219  45.392  34.467  1.00  0.00    -0.326 OA
HETATM   19  C   UNL     1      41.692  45.169  33.139  1.00  0.00     0.176 C 
HETATM   20  C   UNL     1      40.932  46.427  32.692  1.00  0.00     0.170 C 
HETATM   21  C   UNL     1      39.806  46.709  33.707  1.00  0.00     0.172 C 
HETATM   22  C   UNL     1      40.340  46.770  35.144  1.00  0.00     0.197 C 
BRANCH  19  23
HETATM   23  C   UNL     1      42.876  44.838  32.229  1.00  0.00     0.170 C 
BRANCH  23  24
HETATM   24  O   UNL     1      42.541  45.170  30.879  1.00  0.00    -0.380 OA
HETATM   25  H   UNL     1      42.636  44.353  30.346  1.00  0.00     0.211 HD
ENDBRANCH  23  24
ENDBRANCH  19  23
BRANCH  20  26
HETATM   26  O   UNL     1      41.840  47.532  32.595  1.00  0.00    -0.380 OA
HETATM   27  H   UNL     1      41.832  47.869  31.683  1.00  0.00     0.211 HD
ENDBRANCH  20  26
BRANCH  21  28
HETATM   28  O   UNL     1      39.119  47.923  33.395  1.00  0.00    -0.380 OA
HETATM   29  H   UNL     1      39.590  48.630  33.878  1.00  0.00     0.211 HD
ENDBRANCH  21  28
BRANCH  22  30
HETATM   30  O   UNL     1      39.228  46.872  36.047  1.00  0.00    -0.378 OA
HETATM   31  H   UNL     1      38.765  46.013  36.005  1.00  0.00     0.211 HD
ENDBRANCH  22  30
ENDBRANCH   1  17
TORSDOF 12
ENDMDL
MODEL 8
REMARK VINA RESULT:    -4.981      2.569      3.396
REMARK INTER + INTRA:          -8.792
REMARK INTER:                  -7.789
REMARK INTRA:                  -1.003
REMARK UNBOUND:                -1.481
REMARK  12 active torsions:
REMARK  status: ('A' for Active; 'I' for Inactive)
REMARK    1  A    between atoms: O_1  and  C_12 
REMARK    2  A    between atoms: O_1  and  C_14 
REMARK    3  A    between atoms: O_4  and  C_13 
REMARK    4  A    between atoms: O_5  and  C_16 
REMARK    5  A    between atoms: O_6  and  C_17 
REMARK    6  A    between atoms: O_7  and  C_18 
REMARK    7  A    between atoms: O_8  and  C_19 
REMARK    8  A    between atoms: O_9  and  C_21 
REMARK    9  A    between atoms: O_10  and  C_22 
REMARK   10  A    between atoms: O_11  and  C_23 
REMARK   11  A    between atoms: C_15  and  C_22 
REMARK   12  A    between atoms: C_20  and  C_23 
ROOT
HETATM    1  O   UNL     1      40.488  45.413  36.084  1.00  0.00    -0.326 OA
ENDROOT
BRANCH   1   2
HETATM    2  C   UNL     1      40.991  44.201  36.683  1.00  0.00     0.177 C 
HETATM    3  C   UNL     1      41.563  44.493  38.087  1.00  0.00     0.172 C 
HETATM    4  C   UNL     1      41.820  43.204  38.877  1.00  0.00     0.197 C 
HETATM    5  C   UNL     1      40.599  42.275  38.817  1.00  0.00     0.263 C 
HETATM    6  O   UNL     1      40.217  42.008  37.479  1.00  0.00    -0.327 OA
HETATM    7  C   UNL     1      39.821  43.208  36.796  1.00  0.00     0.177 C 
BRANCH   3   8
HETATM    8  O   UNL     1      42.804  45.213  37.965  1.00  0.00    -0.380 OA
HETATM    9  H   UNL     1      43.072  45.112  37.030  1.00  0.00     0.211 HD
ENDBRANCH   3   8
BRANCH   4  10
HETATM   10  O   UNL     1      42.109  43.514  40.251  1.00  0.00    -0.378 OA
HETATM   11  H   UNL     1      42.949  43.056  40.447  1.00  0.00     0.211 HD
ENDBRANCH   4  10
BRANCH   5  12
HETATM   12  O   UNL     1      40.952  41.040  39.429  1.00  0.00    -0.359 OA
HETATM   13  H   UNL     1      41.138  41.259  40.357  1.00  0.00     0.213 HD
ENDBRANCH   5  12
BRANCH   7  14
HETATM   14  C   UNL     1      39.314  42.791  35.410  1.00  0.00     0.170 C 
BRANCH  14  15
HETATM   15  O   UNL     1      39.403  41.373  35.274  1.00  0.00    -0.380 OA
HETATM   16  H   UNL     1      39.965  41.217  34.490  1.00  0.00     0.211 HD
ENDBRANCH  14  15
ENDBRANCH   7  14
ENDBRANCH   1   2
BRANCH   1  17
HETATM   17  C   UNL     1      41.375  45.996  35.119  1.00  0.00     0.266 C 
HETATM   18  O   UNL     1      42.232  46.930  35.765  1.00  0.00    -0.326 OA
HETATM   19  C   UNL     1      43.194  47.501  34.849  1.00  0.00     0.176 C 
HETATM   20  C   UNL     1      42.447  48.356  33.816  1.00  0.00     0.170 C 
HETATM   21  C   UNL     1      41.429  47.462  33.080  1.00  0.00     0.172 C 
HETATM   22  C   UNL     1      40.517  46.715  34.061  1.00  0.00     0.197 C 
BRANCH  19  23
HETATM   23  C   UNL     1      44.189  48.313  35.682  1.00  0.00     0.170 C 
BRANCH  23  24
HETATM   24  O   UNL     1      43.500  48.927  36.774  1.00  0.00    -0.380 OA
HETATM   25  H   UNL     1      44.167  49.128  37.463  1.00  0.00     0.211 HD
ENDBRANCH  23  24
ENDBRANCH  19  23
BRANCH  20  26
HETATM   26  O   UNL     1      41.801  49.456  34.473  1.00  0.00    -0.380 OA
HETATM   27  H   UNL     1      42.469  49.976  34.950  1.00  0.00     0.211 HD
ENDBRANCH  20  26
BRANCH  21  28
HETATM   28  O   UNL     1      40.634  48.223  32.167  1.00  0.00    -0.380 OA
HETATM   29  H   UNL     1      39.875  47.655  31.933  1.00  0.00     0.211 HD
ENDBRANCH  21  28
BRANCH  22  30
HETATM   30  O   UNL     1      39.708  45.785  33.325  1.00  0.00    -0.378 OA
HETATM   31  H   UNL     1      39.919  45.929  32.382  1.00  0.00     0.211 HD
ENDBRANCH  22  30
ENDBRANCH   1  17
TORSDOF 12
ENDMDL
MODEL 9
REMARK VINA RESULT:    -4.819      1.795      6.569
REMARK INTER + INTRA:          -8.555
REMARK INTER:                  -7.161
REMARK INTRA:                  -1.393
REMARK UNBOUND:                -1.481
REMARK  12 active torsions:
REMARK  status: ('A' for Active; 'I' for Inactive)
REMARK    1  A    between atoms: O_1  and  C_12 
REMARK    2  A    between atoms: O_1  and  C_14 
REMARK    3  A    between atoms: O_4  and  C_13 
REMARK    4  A    between atoms: O_5  and  C_16 
REMARK    5  A    between atoms: O_6  and  C_17 
REMARK    6  A    between atoms: O_7  and  C_18 
REMARK    7  A    between atoms: O_8  and  C_19 
REMARK    8  A    between atoms: O_9  and  C_21 
REMARK    9  A    between atoms: O_10  and  C_22 
REMARK   10  A    between atoms: O_11  and  C_23 
REMARK   11  A    between atoms: C_15  and  C_22 
REMARK   12  A    between atoms: C_20  and  C_23 
ROOT
HETATM    1  O   UNL     1      40.718  45.723  33.306  1.00  0.00    -0.326 OA
ENDROOT
BRANCH   1   2
HETATM    2  C   UNL     1      41.532  46.773  32.746  1.00  0.00     0.177 C 
HETATM    3  C   UNL     1      41.801  47.867  33.802  1.00  0.00     0.172 C 
HETATM    4  C   UNL     1      42.904  48.833  33.354  1.00  0.00     0.197 C 
HETATM    5  C   UNL     1      44.130  48.063  32.841  1.00  0.00     0.263 C 
HETATM    6  O   UNL     1      43.776  47.151  31.816  1.00  0.00    -0.327 OA
HETATM    7  C   UNL     1      42.864  46.149  32.295  1.00  0.00     0.177 C 
BRANCH   3   8
HETATM    8  O   UNL     1      40.597  48.621  34.038  1.00  0.00    -0.380 OA
HETATM    9  H   UNL     1      40.658  48.923  34.967  1.00  0.00     0.211 HD
ENDBRANCH   3   8
BRANCH   4  10
HETATM   10  O   UNL     1      43.302  49.675  34.450  1.00  0.00    -0.378 OA
HETATM   11  H   UNL     1      42.808  50.508  34.327  1.00  0.00     0.211 HD
ENDBRANCH   4  10
BRANCH   5  12
HETATM   12  O   UNL     1      45.048  49.003  32.299  1.00  0.00    -0.359 OA
HETATM   13  H   UNL     1      44.532  49.530  31.667  1.00  0.00     0.213 HD
ENDBRANCH   5  12
BRANCH   7  14
HETATM   14  C   UNL     1      42.648  45.153  31.149  1.00  0.00     0.170 C 
BRANCH  14  15
HETATM   15  O   UNL     1      42.586  43.827  31.673  1.00  0.00    -0.380 OA
HETATM   16  H   UNL     1      41.742  43.454  31.351  1.00  0.00     0.211 HD
ENDBRANCH  14  15
ENDBRANCH   7  14
ENDBRANCH   1   2
BRANCH   1  17
HETATM   17  C   UNL     1      41.185  45.239  34.573  1.00  0.00     0.266 C 
HETATM   18  O   UNL     1      41.617  43.890  34.436  1.00  0.00    -0.326 OA
HETATM   19  C   UNL     1      42.161  43.370  35.671  1.00  0.00     0.176 C 
HETATM   20  C   UNL     1      41.034  43.281  36.710  1.00  0.00     0.170 C 
HETATM   21  C   UNL     1      40.431  44.687  36.905  1.00  0.00     0.172 C 
HETATM   22  C   UNL     1      40.013  45.316  35.570  1.00  0.00     0.197 C 
BRANCH  19  23
HETATM   23  C   UNL     1      42.786  42.009  35.356  1.00  0.00     0.170 C 
BRANCH  23  24
HETATM   24  O   UNL     1      41.875  41.244  34.562  1.00  0.00    -0.380 OA
HETATM   25  H   UNL     1      41.324  40.717  35.177  1.00  0.00     0.211 HD
ENDBRANCH  23  24
ENDBRANCH  19  23
BRANCH  20  26
HETATM   26  O   UNL     1      40.043  42.342  36.269  1.00  0.00    -0.380 OA
HETATM   27  H   UNL     1      39.192  42.562  36.683  1.00  0.00     0.211 HD
ENDBRANCH  20  26
BRANCH  21  28
HETATM   28  O   UNL     1      39.313  44.653  37.794  1.00  0.00    -0.380 OA
HETATM   29  H   UNL     1      39.659  44.905  38.673  1.00  0.00     0.211 HD
ENDBRANCH  21  28
BRANCH  22  30
HETATM   30  O   UNL     1      39.615  46.675  35.803  1.00  0.00    -0.378 OA
HETATM   31  H   UNL     1      38.884  46.854  35.181  1.00  0.00     0.211 HD
ENDBRANCH  22  30
ENDBRANCH   1  17
TORSDOF 12
ENDMDL
MODEL 10
REMARK VINA RESULT:    -4.691      1.907      3.420
REMARK INTER + INTRA:          -8.366
REMARK INTER:                  -7.276
REMARK INTRA:                  -1.090
REMARK UNBOUND:                -1.481
REMARK  12 active torsions:
REMARK  status: ('A' for Active; 'I' for Inactive)
REMARK    1  A    between atoms: O_1  and  C_12 
REMARK    2  A    between atoms: O_1  and  C_14 
REMARK    3  A    between atoms: O_4  and  C_13 
REMARK    4  A    between atoms: O_5  and  C_16 
REMARK    5  A    between atoms: O_6  and  C_17 
REMARK    6  A    between atoms: O_7  and  C_18 
REMARK    7  A    between atoms: O_8  and  C_19 
REMARK    8  A    between atoms: O_9  and  C_21 
REMARK    9  A    between atoms: O_10  and  C_22 
REMARK   10  A    between atoms: O_11  and  C_23 
REMARK   11  A    between atoms: C_15  and  C_22 
REMARK   12  A    between atoms: C_20  and  C_23 
ROOT
HETATM    1  O   UNL     1      40.215  45.326  35.617  1.00  0.00    -0.326 OA
ENDROOT
BRANCH   1   2
HETATM    2  C   UNL     1      40.912  44.246  36.272  1.00  0.00     0.177 C 
HETATM    3  C   UNL     1      41.802  44.793  37.409  1.00  0.00     0.172 C 
HETATM    4  C   UNL     1      42.313  43.671  38.322  1.00  0.00     0.197 C 
HETATM    5  C   UNL     1      41.164  42.741  38.739  1.00  0.00     0.263 C 
HETATM    6  O   UNL     1      40.474  42.232  37.611  1.00  0.00    -0.327 OA
HETATM    7  C   UNL     1      39.860  43.286  36.851  1.00  0.00     0.177 C 
BRANCH   3   8
HETATM    8  O   UNL     1      42.935  45.483  36.851  1.00  0.00    -0.380 OA
HETATM    9  H   UNL     1      42.996  45.175  35.924  1.00  0.00     0.211 HD
ENDBRANCH   3   8
BRANCH   4  10
HETATM   10  O   UNL     1      42.919  44.229  39.501  1.00  0.00    -0.378 OA
HETATM   11  H   UNL     1      43.298  43.467  39.980  1.00  0.00     0.211 HD
ENDBRANCH   4  10
BRANCH   5  12
HETATM   12  O   UNL     1      41.721  41.642  39.449  1.00  0.00    -0.359 OA
HETATM   13  H   UNL     1      42.469  42.010  39.946  1.00  0.00     0.213 HD
ENDBRANCH   5  12
BRANCH   7  14
HETATM   14  C   UNL     1      39.045  42.620  35.736  1.00  0.00     0.170 C 
BRANCH  14  15
HETATM   15  O   UNL     1      39.780  41.523  35.195  1.00  0.00    -0.380 OA
HETATM   16  H   UNL     1      39.978  40.938  35.952  1.00  0.00     0.211 HD
ENDBRANCH  14  15
ENDBRANCH   7  14
ENDBRANCH   1   2
BRANCH   1  17
HETATM   17  C   UNL     1      40.574  45.498  34.239  1.00  0.00     0.266 C 
HETATM   18  O   UNL     1      41.855  44.924  34.006  1.00  0.00    -0.326 OA
HETATM   19  C   UNL     1      42.240  45.010  32.615  1.00  0.00     0.176 C 
HETATM   20  C   UNL     1      42.438  46.488  32.248  1.00  0.00     0.170 C 
HETATM   21  C   UNL     1      41.122  47.244  32.517  1.00  0.00     0.172 C 
HETATM   22  C   UNL     1      40.616  47.010  33.946  1.00  0.00     0.197 C 
BRANCH  19  23
HETATM   23  C   UNL     1      43.515  44.181  32.443  1.00  0.00     0.170 C 
BRANCH  23  24
HETATM   24  O   UNL     1      44.301  44.270  33.634  1.00  0.00    -0.380 OA
HETATM   25  H   UNL     1      44.171  45.170  34.001  1.00  0.00     0.211 HD
ENDBRANCH  23  24
ENDBRANCH  19  23
BRANCH  20  26
HETATM   26  O   UNL     1      43.523  47.035  33.010  1.00  0.00    -0.380 OA
HETATM   27  H   UNL     1      43.803  46.384  33.674  1.00  0.00     0.211 HD
ENDBRANCH  20  26
BRANCH  21  28
HETATM   28  O   UNL     1      41.271  48.646  32.282  1.00  0.00    -0.380 OA
HETATM   29  H   UNL     1      41.741  48.727  31.429  1.00  0.00     0.211 HD
ENDBRANCH  21  28
BRANCH  22  30
HETATM   30  O   UNL     1      39.315  47.603  34.080  1.00  0.00    -0.378 OA
HETATM   31  H   UNL     1      39.451  48.569  34.029  1.00  0.00     0.211 HD
ENDBRANCH  22  30
ENDBRANCH   1  17
TORSDOF 12
ENDMDL
