MODEL 1
REMARK VINA RESULT:    -6.019      0.000      0.000
REMARK INTER + INTRA:          -9.885
REMARK INTER:                  -8.356
REMARK INTRA:                  -1.529
REMARK UNBOUND:                -1.051
REMARK  12 active torsions:
REMARK  status: ('A' for Active; 'I' for Inactive)
REMARK    1  A    between atoms: O_1  and  C_12 
REMARK    2  A    between atoms: O_1  and  C_14 
REMARK    3  A    between atoms: O_4  and  C_13 
REMARK    4  A    between atoms: O_5  and  C_16 
REMARK    5  A    between atoms: O_6  and  C_17 
REMARK    6  A    between atoms: O_7  and  C_18 
REMARK    7  A    between atoms: O_8  and  C_19 
REMARK    8  A    between atoms: O_9  and  C_21 
REMARK    9  A    between atoms: O_10  and  C_22 
REMARK   10  A    between atoms: O_11  and  C_23 
REMARK   11  A    between atoms: C_15  and  C_22 
REMARK   12  A    between atoms: C_20  and  C_23 
ROOT
HETATM    1  O   UNL     1      41.449  45.597  33.636  1.00  0.00    -0.326 OA
ENDROOT
BRANCH   1   2
HETATM    2  C   UNL     1      42.638  46.382  33.408  1.00  0.00     0.177 C 
HETATM    3  C   UNL     1      43.396  45.861  32.168  1.00  0.00     0.172 C 
HETATM    4  C   UNL     1      44.480  46.844  31.709  1.00  0.00     0.197 C 
HETATM    5  C   UNL     1      43.921  48.271  31.619  1.00  0.00     0.263 C 
HETATM    6  O   UNL     1      43.327  48.672  32.842  1.00  0.00    -0.327 OA
HETATM    7  C   UNL     1      42.205  47.840  33.179  1.00  0.00     0.177 C 
BRANCH   3   8
HETATM    8  O   UNL     1      44.017  44.599  32.472  1.00  0.00    -0.380 OA
HETATM    9  H   UNL     1      43.348  43.920  32.251  1.00  0.00     0.211 HD
ENDBRANCH   3   8
BRANCH   4  10
HETATM   10  O   UNL     1      44.988  46.456  30.421  1.00  0.00    -0.378 OA
HETATM   11  H   UNL     1      45.650  45.761  30.604  1.00  0.00     0.211 HD
ENDBRANCH   4  10
BRANCH   5  12
HETATM   12  O   UNL     1      45.002  49.153  31.344  1.00  0.00    -0.359 OA
HETATM   13  H   UNL     1      45.507  49.205  32.172  1.00  0.00     0.213 HD
ENDBRANCH   5  12
BRANCH   7  14
HETATM   14  C   UNL     1      41.567  48.433  34.441  1.00  0.00     0.170 C 
BRANCH  14  15
HETATM   15  O   UNL     1      40.150  48.277  34.380  1.00  0.00    -0.380 OA
HETATM   16  H   UNL     1      39.974  47.351  34.639  1.00  0.00     0.211 HD
ENDBRANCH  14  15
ENDBRANCH   7  14
ENDBRANCH   1   2
BRANCH   1  17
HETATM   17  C   UNL     1      41.524  44.752  34.793  1.00  0.00     0.266 C 
HETATM   18  O   UNL     1      42.011  43.469  34.414  1.00  0.00    -0.326 OA
HETATM   19  C   UNL     1      42.171  42.594  35.554  1.00  0.00     0.176 C 
HETATM   20  C   UNL     1      40.784  42.291  36.142  1.00  0.00     0.170 C 
HETATM   21  C   UNL     1      40.116  43.622  36.540  1.00  0.00     0.172 C 
HETATM   22  C   UNL     1      40.105  44.622  35.377  1.00  0.00     0.197 C 
BRANCH  19  23
HETATM   23  C   UNL     1      42.895  41.338  35.066  1.00  0.00     0.170 C 
BRANCH  23  24
HETATM   24  O   UNL     1      42.541  41.088  33.704  1.00  0.00    -0.380 OA
HETATM   25  H   UNL     1      43.231  40.504  33.326  1.00  0.00     0.211 HD
ENDBRANCH  23  24
ENDBRANCH  19  23
BRANCH  20  26
HETATM   26  O   UNL     1      39.997  41.575  35.180  1.00  0.00    -0.380 OA
HETATM   27  H   UNL     1      39.148  42.033  35.062  1.00  0.00     0.211 HD
ENDBRANCH  20  26
BRANCH  21  28
HETATM   28  O   UNL     1      38.782  43.413  37.010  1.00  0.00    -0.380 OA
HETATM   29  H   UNL     1      38.603  44.135  37.643  1.00  0.00     0.211 HD
ENDBRANCH  21  28
BRANCH  22  30
HETATM   30  O   UNL     1      39.621  45.885  35.857  1.00  0.00    -0.378 OA
HETATM   31  H   UNL     1      39.456  45.767  36.812  1.00  0.00     0.211 HD
ENDBRANCH  22  30
ENDBRANCH   1  17
TORSDOF 12
ENDMDL
MODEL 2
REMARK VINA RESULT:    -5.615      1.686      2.149
REMARK INTER + INTRA:          -9.292
REMARK INTER:                  -7.963
REMARK INTRA:                  -1.329
REMARK UNBOUND:                -1.051
REMARK  12 active torsions:
REMARK  status: ('A' for Active; 'I' for Inactive)
REMARK    1  A    between atoms: O_1  and  C_12 
REMARK    2  A    between atoms: O_1  and  C_14 
REMARK    3  A    between atoms: O_4  and  C_13 
REMARK    4  A    between atoms: O_5  and  C_16 
REMARK    5  A    between atoms: O_6  and  C_17 
REMARK    6  A    between atoms: O_7  and  C_18 
REMARK    7  A    between atoms: O_8  and  C_19 
REMARK    8  A    between atoms: O_9  and  C_21 
REMARK    9  A    between atoms: O_10  and  C_22 
REMARK   10  A    between atoms: O_11  and  C_23 
REMARK   11  A    between atoms: C_15  and  C_22 
REMARK   12  A    between atoms: C_20  and  C_23 
ROOT
HETATM    1  O   UNL     1      40.887  45.932  35.877  1.00  0.00    -0.326 OA
ENDROOT
BRANCH   1   2
HETATM    2  C   UNL     1      41.745  46.156  34.739  1.00  0.00     0.177 C 
HETATM    3  C   UNL     1      40.928  46.095  33.430  1.00  0.00     0.172 C 
HETATM    4  C   UNL     1      41.725  46.629  32.234  1.00  0.00     0.197 C 
HETATM    5  C   UNL     1      42.377  47.978  32.571  1.00  0.00     0.263 C 
HETATM    6  O   UNL     1      43.171  47.891  33.742  1.00  0.00    -0.327 OA
HETATM    7  C   UNL     1      42.379  47.549  34.891  1.00  0.00     0.177 C 
BRANCH   3   8
HETATM    8  O   UNL     1      40.546  44.734  33.158  1.00  0.00    -0.380 OA
HETATM    9  H   UNL     1      40.629  44.630  32.188  1.00  0.00     0.211 HD
ENDBRANCH   3   8
BRANCH   4  10
HETATM   10  O   UNL     1      40.863  46.794  31.096  1.00  0.00    -0.378 OA
HETATM   11  H   UNL     1      39.964  46.891  31.466  1.00  0.00     0.211 HD
ENDBRANCH   4  10
BRANCH   5  12
HETATM   12  O   UNL     1      43.224  48.343  31.489  1.00  0.00    -0.359 OA
HETATM   13  H   UNL     1      42.880  49.193  31.169  1.00  0.00     0.213 HD
ENDBRANCH   5  12
BRANCH   7  14
HETATM   14  C   UNL     1      43.307  47.604  36.110  1.00  0.00     0.170 C 
BRANCH  14  15
HETATM   15  O   UNL     1      42.561  47.991  37.263  1.00  0.00    -0.380 OA
HETATM   16  H   UNL     1      41.627  47.797  37.051  1.00  0.00     0.211 HD
ENDBRANCH  14  15
ENDBRANCH   7  14
ENDBRANCH   1   2
BRANCH   1  17
HETATM   17  C   UNL     1      41.096  44.668  36.521  1.00  0.00     0.266 C 
HETATM   18  O   UNL     1      41.641  43.742  35.588  1.00  0.00    -0.326 OA
HETATM   19  C   UNL     1      41.934  42.466  36.203  1.00  0.00     0.176 C 
HETATM   20  C   UNL     1      40.613  41.809  36.630  1.00  0.00     0.170 C 
HETATM   21  C   UNL     1      39.886  42.753  37.608  1.00  0.00     0.172 C 
HETATM   22  C   UNL     1      39.730  44.163  37.024  1.00  0.00     0.197 C 
BRANCH  19  23
HETATM   23  C   UNL     1      42.706  41.634  35.177  1.00  0.00     0.170 C 
BRANCH  23  24
HETATM   24  O   UNL     1      42.253  41.966  33.862  1.00  0.00    -0.380 OA
HETATM   25  H   UNL     1      41.768  42.815  33.927  1.00  0.00     0.211 HD
ENDBRANCH  23  24
ENDBRANCH  19  23
BRANCH  20  26
HETATM   26  O   UNL     1      39.813  41.534  35.472  1.00  0.00    -0.380 OA
HETATM   27  H   UNL     1      38.880  41.484  35.737  1.00  0.00     0.211 HD
ENDBRANCH  20  26
BRANCH  21  28
HETATM   28  O   UNL     1      38.603  42.236  37.970  1.00  0.00    -0.380 OA
HETATM   29  H   UNL     1      38.458  42.503  38.899  1.00  0.00     0.211 HD
ENDBRANCH  21  28
BRANCH  22  30
HETATM   30  O   UNL     1      39.196  45.027  38.039  1.00  0.00    -0.378 OA
HETATM   31  H   UNL     1      39.499  45.928  37.814  1.00  0.00     0.211 HD
ENDBRANCH  22  30
ENDBRANCH   1  17
TORSDOF 12
ENDMDL
MODEL 3
REMARK VINA RESULT:    -5.598      2.105      6.133
REMARK INTER + INTRA:          -9.267
REMARK INTER:                  -7.843
REMARK INTRA:                  -1.424
REMARK UNBOUND:                -1.051
REMARK  12 active torsions:
REMARK  status: ('A' for Active; 'I' for Inactive)
REMARK    1  A    between atoms: O_1  and  C_12 
REMARK    2  A    between atoms: O_1  and  C_14 
REMARK    3  A    between atoms: O_4  and  C_13 
REMARK    4  A    between atoms: O_5  and  C_16 
REMARK    5  A    between atoms: O_6  and  C_17 
REMARK    6  A    between atoms: O_7  and  C_18 
REMARK    7  A    between atoms: O_8  and  C_19 
REMARK    8  A    between atoms: O_9  and  C_21 
REMARK    9  A    between atoms: O_10  and  C_22 
REMARK   10  A    between atoms: O_11  and  C_23 
REMARK   11  A    between atoms: C_15  and  C_22 
REMARK   12  A    between atoms: C_20  and  C_23 
ROOT
HETATM    1  O   UNL     1      41.799  45.974  36.192  1.00  0.00    -0.326 OA
ENDROOT
BRANCH   1   2
HETATM    2  C   UNL     1      41.791  44.731  36.924  1.00  0.00     0.177 C 
HETATM    3  C   UNL     1      40.381  44.103  36.901  1.00  0.00     0.172 C 
HETATM    4  C   UNL     1      40.397  42.650  37.391  1.00  0.00     0.197 C 
HETATM    5  C   UNL     1      41.512  41.852  36.700  1.00  0.00     0.263 C 
HETATM    6  O   UNL     1      42.773  42.478  36.862  1.00  0.00    -0.327 OA
HETATM    7  C   UNL     1      42.796  43.779  36.252  1.00  0.00     0.177 C 
BRANCH   3   8
HETATM    8  O   UNL     1      39.496  44.863  37.743  1.00  0.00    -0.380 OA
HETATM    9  H   UNL     1      39.739  44.622  38.660  1.00  0.00     0.211 HD
ENDBRANCH   3   8
BRANCH   4  10
HETATM   10  O   UNL     1      39.132  42.021  37.121  1.00  0.00    -0.378 OA
HETATM   11  H   UNL     1      39.236  41.096  37.415  1.00  0.00     0.211 HD
ENDBRANCH   4  10
BRANCH   5  12
HETATM   12  O   UNL     1      41.577  40.567  37.306  1.00  0.00    -0.359 OA
HETATM   13  H   UNL     1      40.655  40.276  37.389  1.00  0.00     0.213 HD
ENDBRANCH   5  12
BRANCH   7  14
HETATM   14  C   UNL     1      44.229  44.310  36.377  1.00  0.00     0.170 C 
BRANCH  14  15
HETATM   15  O   UNL     1      44.544  45.109  35.237  1.00  0.00    -0.380 OA
HETATM   16  H   UNL     1      45.192  44.591  34.721  1.00  0.00     0.211 HD
ENDBRANCH  14  15
ENDBRANCH   7  14
ENDBRANCH   1   2
BRANCH   1  17
HETATM   17  C   UNL     1      41.155  45.899  34.914  1.00  0.00     0.266 C 
HETATM   18  O   UNL     1      42.120  46.076  33.883  1.00  0.00    -0.326 OA
HETATM   19  C   UNL     1      41.535  45.943  32.567  1.00  0.00     0.176 C 
HETATM   20  C   UNL     1      40.556  47.105  32.343  1.00  0.00     0.170 C 
HETATM   21  C   UNL     1      39.480  47.063  33.446  1.00  0.00     0.172 C 
HETATM   22  C   UNL     1      40.105  47.025  34.847  1.00  0.00     0.197 C 
BRANCH  19  23
HETATM   23  C   UNL     1      42.684  45.933  31.557  1.00  0.00     0.170 C 
BRANCH  23  24
HETATM   24  O   UNL     1      42.222  46.461  30.311  1.00  0.00    -0.380 OA
HETATM   25  H   UNL     1      41.377  46.011  30.100  1.00  0.00     0.211 HD
ENDBRANCH  23  24
ENDBRANCH  19  23
BRANCH  20  26
HETATM   26  O   UNL     1      41.270  48.349  32.353  1.00  0.00    -0.380 OA
HETATM   27  H   UNL     1      40.632  49.079  32.414  1.00  0.00     0.211 HD
ENDBRANCH  20  26
BRANCH  21  28
HETATM   28  O   UNL     1      38.589  48.177  33.345  1.00  0.00    -0.380 OA
HETATM   29  H   UNL     1      37.975  48.100  34.102  1.00  0.00     0.211 HD
ENDBRANCH  21  28
BRANCH  22  30
HETATM   30  O   UNL     1      39.062  46.823  35.813  1.00  0.00    -0.378 OA
HETATM   31  H   UNL     1      39.504  46.507  36.626  1.00  0.00     0.211 HD
ENDBRANCH  22  30
ENDBRANCH   1  17
TORSDOF 12
ENDMDL
MODEL 4
REMARK VINA RESULT:    -5.545      1.647      7.129
REMARK INTER + INTRA:          -9.188
REMARK INTER:                  -7.728
REMARK INTRA:                  -1.461
REMARK UNBOUND:                -1.051
REMARK  12 active torsions:
REMARK  status: ('A' for Active; 'I' for Inactive)
REMARK    1  A    between atoms: O_1  and  C_12 
REMARK    2  A    between atoms: O_1  and  C_14 
REMARK    3  A    between atoms: O_4  and  C_13 
REMARK    4  A    between atoms: O_5  and  C_16 
REMARK    5  A    between atoms: O_6  and  C_17 
REMARK    6  A    between atoms: O_7  and  C_18 
REMARK    7  A    between atoms: O_8  and  C_19 
REMARK    8  A    between atoms: O_9  and  C_21 
REMARK    9  A    between atoms: O_10  and  C_22 
REMARK   10  A    between atoms: O_11  and  C_23 
REMARK   11  A    between atoms: C_15  and  C_22 
REMARK   12  A    between atoms: C_20  and  C_23 
ROOT
HETATM    1  O   UNL     1      41.364  43.110  34.616  1.00  0.00    -0.326 OA
ENDROOT
BRANCH   1   2
HETATM    2  C   UNL     1      41.157  43.029  36.041  1.00  0.00     0.177 C 
HETATM    3  C   UNL     1      39.717  43.452  36.401  1.00  0.00     0.172 C 
HETATM    4  C   UNL     1      39.360  43.087  37.847  1.00  0.00     0.197 C 
HETATM    5  C   UNL     1      39.741  41.631  38.153  1.00  0.00     0.263 C 
HETATM    6  O   UNL     1      41.106  41.382  37.866  1.00  0.00    -0.327 OA
HETATM    7  C   UNL     1      41.393  41.570  36.470  1.00  0.00     0.177 C 
BRANCH   3   8
HETATM    8  O   UNL     1      39.572  44.874  36.236  1.00  0.00    -0.380 OA
HETATM    9  H   UNL     1      38.843  45.132  36.836  1.00  0.00     0.211 HD
ENDBRANCH   3   8
BRANCH   4  10
HETATM   10  O   UNL     1      37.949  43.261  38.069  1.00  0.00    -0.378 OA
HETATM   11  H   UNL     1      37.881  43.929  38.777  1.00  0.00     0.211 HD
ENDBRANCH   4  10
BRANCH   5  12
HETATM   12  O   UNL     1      39.533  41.402  39.541  1.00  0.00    -0.359 OA
HETATM   13  H   UNL     1      38.571  41.441  39.666  1.00  0.00     0.213 HD
ENDBRANCH   5  12
BRANCH   7  14
HETATM   14  C   UNL     1      42.854  41.158  36.251  1.00  0.00     0.170 C 
BRANCH  14  15
HETATM   15  O   UNL     1      43.003  40.600  34.946  1.00  0.00    -0.380 OA
HETATM   16  H   UNL     1      42.984  41.357  34.330  1.00  0.00     0.211 HD
ENDBRANCH  14  15
ENDBRANCH   7  14
ENDBRANCH   1   2
BRANCH   1  17
HETATM   17  C   UNL     1      42.122  44.255  34.204  1.00  0.00     0.266 C 
HETATM   18  O   UNL     1      41.236  45.292  33.797  1.00  0.00    -0.326 OA
HETATM   19  C   UNL     1      41.946  46.498  33.433  1.00  0.00     0.176 C 
HETATM   20  C   UNL     1      42.775  46.220  32.170  1.00  0.00     0.170 C 
HETATM   21  C   UNL     1      43.746  45.059  32.462  1.00  0.00     0.172 C 
HETATM   22  C   UNL     1      43.011  43.832  33.019  1.00  0.00     0.197 C 
BRANCH  19  23
HETATM   23  C   UNL     1      40.902  47.597  33.227  1.00  0.00     0.170 C 
BRANCH  23  24
HETATM   24  O   UNL     1      41.459  48.631  32.411  1.00  0.00    -0.380 OA
HETATM   25  H   UNL     1      42.042  48.199  31.752  1.00  0.00     0.211 HD
ENDBRANCH  23  24
ENDBRANCH  19  23
BRANCH  20  26
HETATM   26  O   UNL     1      41.900  45.911  31.076  1.00  0.00    -0.380 OA
HETATM   27  H   UNL     1      42.034  46.565  30.370  1.00  0.00     0.211 HD
ENDBRANCH  20  26
BRANCH  21  28
HETATM   28  O   UNL     1      44.482  44.691  31.293  1.00  0.00    -0.380 OA
HETATM   29  H   UNL     1      45.179  45.368  31.191  1.00  0.00     0.211 HD
ENDBRANCH  21  28
BRANCH  22  30
HETATM   30  O   UNL     1      43.983  42.854  33.419  1.00  0.00    -0.378 OA
HETATM   31  H   UNL     1      44.844  43.175  33.089  1.00  0.00     0.211 HD
ENDBRANCH  22  30
ENDBRANCH   1  17
TORSDOF 12
ENDMDL
MODEL 5
REMARK VINA RESULT:    -5.363      1.788      6.151
REMARK INTER + INTRA:          -8.922
REMARK INTER:                  -7.410
REMARK INTRA:                  -1.512
REMARK UNBOUND:                -1.051
REMARK  12 active torsions:
REMARK  status: ('A' for Active; 'I' for Inactive)
REMARK    1  A    between atoms: O_1  and  C_12 
REMARK    2  A    between atoms: O_1  and  C_14 
REMARK    3  A    between atoms: O_4  and  C_13 
REMARK    4  A    between atoms: O_5  and  C_16 
REMARK    5  A    between atoms: O_6  and  C_17 
REMARK    6  A    between atoms: O_7  and  C_18 
REMARK    7  A    between atoms: O_8  and  C_19 
REMARK    8  A    between atoms: O_9  and  C_21 
REMARK    9  A    between atoms: O_10  and  C_22 
REMARK   10  A    between atoms: O_11  and  C_23 
REMARK   11  A    between atoms: C_15  and  C_22 
REMARK   12  A    between atoms: C_20  and  C_23 
ROOT
HETATM    1  O   UNL     1      41.901  46.300  34.366  1.00  0.00    -0.326 OA
ENDROOT
BRANCH   1   2
HETATM    2  C   UNL     1      41.462  44.937  34.194  1.00  0.00     0.177 C 
HETATM    3  C   UNL     1      42.203  44.005  35.177  1.00  0.00     0.172 C 
HETATM    4  C   UNL     1      41.554  42.618  35.246  1.00  0.00     0.197 C 
HETATM    5  C   UNL     1      40.034  42.734  35.429  1.00  0.00     0.263 C 
HETATM    6  O   UNL     1      39.451  43.541  34.420  1.00  0.00    -0.327 OA
HETATM    7  C   UNL     1      39.949  44.888  34.472  1.00  0.00     0.177 C 
BRANCH   3   8
HETATM    8  O   UNL     1      43.573  43.852  34.762  1.00  0.00    -0.380 OA
HETATM    9  H   UNL     1      44.024  44.673  35.047  1.00  0.00     0.211 HD
ENDBRANCH   3   8
BRANCH   4  10
HETATM   10  O   UNL     1      42.104  41.866  36.342  1.00  0.00    -0.378 OA
HETATM   11  H   UNL     1      41.350  41.692  36.938  1.00  0.00     0.211 HD
ENDBRANCH   4  10
BRANCH   5  12
HETATM   12  O   UNL     1      39.474  41.430  35.328  1.00  0.00    -0.359 OA
HETATM   13  H   UNL     1      40.233  40.834  35.216  1.00  0.00     0.213 HD
ENDBRANCH   5  12
BRANCH   7  14
HETATM   14  C   UNL     1      39.169  45.697  33.429  1.00  0.00     0.170 C 
BRANCH  14  15
HETATM   15  O   UNL     1      39.051  47.051  33.864  1.00  0.00    -0.380 OA
HETATM   16  H   UNL     1      39.936  47.303  34.191  1.00  0.00     0.211 HD
ENDBRANCH  14  15
ENDBRANCH   7  14
ENDBRANCH   1   2
BRANCH   1  17
HETATM   17  C   UNL     1      42.822  46.745  33.362  1.00  0.00     0.266 C 
HETATM   18  O   UNL     1      44.155  46.537  33.813  1.00  0.00    -0.326 OA
HETATM   19  C   UNL     1      45.129  46.908  32.810  1.00  0.00     0.176 C 
HETATM   20  C   UNL     1      45.058  48.427  32.590  1.00  0.00     0.170 C 
HETATM   21  C   UNL     1      43.627  48.795  32.152  1.00  0.00     0.172 C 
HETATM   22  C   UNL     1      42.577  48.248  33.127  1.00  0.00     0.197 C 
BRANCH  19  23
HETATM   23  C   UNL     1      46.498  46.445  33.311  1.00  0.00     0.170 C 
BRANCH  23  24
HETATM   24  O   UNL     1      46.543  46.558  34.735  1.00  0.00    -0.380 OA
HETATM   25  H   UNL     1      46.173  45.730  35.105  1.00  0.00     0.211 HD
ENDBRANCH  23  24
ENDBRANCH  19  23
BRANCH  20  26
HETATM   26  O   UNL     1      45.430  49.108  33.796  1.00  0.00    -0.380 OA
HETATM   27  H   UNL     1      44.625  49.389  34.262  1.00  0.00     0.211 HD
ENDBRANCH  20  26
BRANCH  21  28
HETATM   28  O   UNL     1      43.473  50.211  32.021  1.00  0.00    -0.380 OA
HETATM   29  H   UNL     1      43.219  50.369  31.091  1.00  0.00     0.211 HD
ENDBRANCH  21  28
BRANCH  22  30
HETATM   30  O   UNL     1      41.270  48.484  32.580  1.00  0.00    -0.378 OA
HETATM   31  H   UNL     1      41.211  47.936  31.773  1.00  0.00     0.211 HD
ENDBRANCH  22  30
ENDBRANCH   1  17
TORSDOF 12
ENDMDL
MODEL 6
REMARK VINA RESULT:    -5.291      2.131      3.687
REMARK INTER + INTRA:          -8.817
REMARK INTER:                  -7.257
REMARK INTRA:                  -1.559
REMARK UNBOUND:                -1.051
REMARK  12 active torsions:
REMARK  status: ('A' for Active; 'I' for Inactive)
REMARK    1  A    between atoms: O_1  and  C_12 
REMARK    2  A    between atoms: O_1  and  C_14 
REMARK    3  A    between atoms: O_4  and  C_13 
REMARK    4  A    between atoms: O_5  and  C_16 
REMARK    5  A    between atoms: O_6  and  C_17 
REMARK    6  A    between atoms: O_7  and  C_18 
REMARK    7  A    between atoms: O_8  and  C_19 
REMARK    8  A    between atoms: O_9  and  C_21 
REMARK    9  A    between atoms: O_10  and  C_22 
REMARK   10  A    between atoms: O_11  and  C_23 
REMARK   11  A    between atoms: C_15  and  C_22 
REMARK   12  A    between atoms: C_20  and  C_23 
ROOT
HETATM    1  O   UNL     1      41.435  43.473  34.241  1.00  0.00    -0.326 OA
ENDROOT
BRANCH   1   2
HETATM    2  C   UNL     1      41.361  44.619  33.368  1.00  0.00     0.177 C 
HETATM    3  C   UNL     1      40.081  45.433  33.656  1.00  0.00     0.172 C 
HETATM    4  C   UNL     1      40.116  46.808  32.979  1.00  0.00     0.197 C 
HETATM    5  C   UNL     1      41.451  47.516  33.250  1.00  0.00     0.263 C 
HETATM    6  O   UNL     1      42.552  46.710  32.867  1.00  0.00    -0.327 OA
HETATM    7  C   UNL     1      42.601  45.492  33.628  1.00  0.00     0.177 C 
BRANCH   3   8
HETATM    8  O   UNL     1      38.930  44.713  33.177  1.00  0.00    -0.380 OA
HETATM    9  H   UNL     1      38.248  44.824  33.870  1.00  0.00     0.211 HD
ENDBRANCH   3   8
BRANCH   4  10
HETATM   10  O   UNL     1      39.040  47.629  33.467  1.00  0.00    -0.378 OA
HETATM   11  H   UNL     1      39.473  48.362  33.946  1.00  0.00     0.211 HD
ENDBRANCH   4  10
BRANCH   5  12
HETATM   12  O   UNL     1      41.486  48.708  32.474  1.00  0.00    -0.359 OA
HETATM   13  H   UNL     1      41.477  48.411  31.549  1.00  0.00     0.213 HD
ENDBRANCH   5  12
BRANCH   7  14
HETATM   14  C   UNL     1      43.887  44.761  33.224  1.00  0.00     0.170 C 
BRANCH  14  15
HETATM   15  O   UNL     1      44.336  43.948  34.308  1.00  0.00    -0.380 OA
HETATM   16  H   UNL     1      43.614  43.312  34.479  1.00  0.00     0.211 HD
ENDBRANCH  14  15
ENDBRANCH   7  14
ENDBRANCH   1   2
BRANCH   1  17
HETATM   17  C   UNL     1      41.016  43.740  35.587  1.00  0.00     0.266 C 
HETATM   18  O   UNL     1      42.158  43.842  36.429  1.00  0.00    -0.326 OA
HETATM   19  C   UNL     1      41.798  44.178  37.789  1.00  0.00     0.176 C 
HETATM   20  C   UNL     1      41.010  43.006  38.394  1.00  0.00     0.170 C 
HETATM   21  C   UNL     1      39.762  42.750  37.526  1.00  0.00     0.172 C 
HETATM   22  C   UNL     1      40.128  42.569  36.047  1.00  0.00     0.197 C 
BRANCH  19  23
HETATM   23  C   UNL     1      43.095  44.473  38.544  1.00  0.00     0.170 C 
BRANCH  23  24
HETATM   24  O   UNL     1      44.155  43.690  37.987  1.00  0.00    -0.380 OA
HETATM   25  H   UNL     1      43.742  42.977  37.457  1.00  0.00     0.211 HD
ENDBRANCH  23  24
ENDBRANCH  19  23
BRANCH  20  26
HETATM   26  O   UNL     1      41.848  41.845  38.465  1.00  0.00    -0.380 OA
HETATM   27  H   UNL     1      42.743  42.081  38.169  1.00  0.00     0.211 HD
ENDBRANCH  20  26
BRANCH  21  28
HETATM   28  O   UNL     1      39.035  41.609  37.987  1.00  0.00    -0.380 OA
HETATM   29  H   UNL     1      39.474  40.832  37.590  1.00  0.00     0.211 HD
ENDBRANCH  21  28
BRANCH  22  30
HETATM   30  O   UNL     1      38.919  42.497  35.277  1.00  0.00    -0.378 OA
HETATM   31  H   UNL     1      39.196  42.456  34.341  1.00  0.00     0.211 HD
ENDBRANCH  22  30
ENDBRANCH   1  17
TORSDOF 12
ENDMDL
MODEL 7
REMARK VINA RESULT:    -5.260      1.268      2.861
REMARK INTER + INTRA:          -8.770
REMARK INTER:                  -7.720
REMARK INTRA:                  -1.051
REMARK UNBOUND:                -1.051
REMARK  12 active torsions:
REMARK  status: ('A' for Active; 'I' for Inactive)
REMARK    1  A    between atoms: O_1  and  C_12 
REMARK    2  A    between atoms: O_1  and  C_14 
REMARK    3  A    between atoms: O_4  and  C_13 
REMARK    4  A    between atoms: O_5  and  C_16 
REMARK    5  A    between atoms: O_6  and  C_17 
REMARK    6  A    between atoms: O_7  and  C_18 
REMARK    7  A    between atoms: O_8  and  C_19 
REMARK    8  A    between atoms: O_9  and  C_21 
REMARK    9  A    between atoms: O_10  and  C_22 
REMARK   10  A    between atoms: O_11  and  C_23 
REMARK   11  A    between atoms: C_15  and  C_22 
REMARK   12  A    between atoms: C_20  and  C_23 
ROOT
HETATM    1  O   UNL     1      40.892  45.657  32.797  1.00  0.00    -0.326 OA
ENDROOT
BRANCH   1   2
HETATM    2  C   UNL     1      41.889  46.351  32.020  1.00  0.00     0.177 C 
HETATM    3  C   UNL     1      42.098  47.780  32.566  1.00  0.00     0.172 C 
HETATM    4  C   UNL     1      43.351  48.438  31.977  1.00  0.00     0.197 C 
HETATM    5  C   UNL     1      44.557  47.491  32.064  1.00  0.00     0.263 C 
HETATM    6  O   UNL     1      44.279  46.242  31.454  1.00  0.00    -0.327 OA
HETATM    7  C   UNL     1      43.204  45.559  32.121  1.00  0.00     0.177 C 
BRANCH   3   8
HETATM    8  O   UNL     1      40.956  48.595  32.243  1.00  0.00    -0.380 OA
HETATM    9  H   UNL     1      40.176  48.066  32.508  1.00  0.00     0.211 HD
ENDBRANCH   3   8
BRANCH   4  10
HETATM   10  O   UNL     1      43.655  49.652  32.687  1.00  0.00    -0.378 OA
HETATM   11  H   UNL     1      43.059  49.653  33.461  1.00  0.00     0.211 HD
ENDBRANCH   4  10
BRANCH   5  12
HETATM   12  O   UNL     1      45.642  48.090  31.366  1.00  0.00    -0.359 OA
HETATM   13  H   UNL     1      45.956  48.804  31.945  1.00  0.00     0.213 HD
ENDBRANCH   5  12
BRANCH   7  14
HETATM   14  C   UNL     1      43.071  44.180  31.464  1.00  0.00     0.170 C 
BRANCH  14  15
HETATM   15  O   UNL     1      43.016  43.173  32.474  1.00  0.00    -0.380 OA
HETATM   16  H   UNL     1      43.125  42.322  32.006  1.00  0.00     0.211 HD
ENDBRANCH  14  15
ENDBRANCH   7  14
ENDBRANCH   1   2
BRANCH   1  17
HETATM   17  C   UNL     1      41.237  45.504  34.180  1.00  0.00     0.266 C 
HETATM   18  O   UNL     1      41.282  44.120  34.509  1.00  0.00    -0.326 OA
HETATM   19  C   UNL     1      41.691  43.904  35.879  1.00  0.00     0.176 C 
HETATM   20  C   UNL     1      40.606  44.458  36.813  1.00  0.00     0.170 C 
HETATM   21  C   UNL     1      40.414  45.958  36.510  1.00  0.00     0.172 C 
HETATM   22  C   UNL     1      40.154  46.207  35.020  1.00  0.00     0.197 C 
BRANCH  19  23
HETATM   23  C   UNL     1      41.913  42.400  36.056  1.00  0.00     0.170 C 
BRANCH  23  24
HETATM   24  O   UNL     1      41.027  41.687  35.190  1.00  0.00    -0.380 OA
HETATM   25  H   UNL     1      40.118  41.994  35.387  1.00  0.00     0.211 HD
ENDBRANCH  23  24
ENDBRANCH  19  23
BRANCH  20  26
HETATM   26  O   UNL     1      39.387  43.726  36.627  1.00  0.00    -0.380 OA
HETATM   27  H   UNL     1      38.882  44.130  35.901  1.00  0.00     0.211 HD
ENDBRANCH  20  26
BRANCH  21  28
HETATM   28  O   UNL     1      39.349  46.512  37.286  1.00  0.00    -0.380 OA
HETATM   29  H   UNL     1      38.579  45.928  37.140  1.00  0.00     0.211 HD
ENDBRANCH  21  28
BRANCH  22  30
HETATM   30  O   UNL     1      40.147  47.623  34.781  1.00  0.00    -0.378 OA
HETATM   31  H   UNL     1      41.044  47.849  34.466  1.00  0.00     0.211 HD
ENDBRANCH  22  30
ENDBRANCH   1  17
TORSDOF 12
ENDMDL
MODEL 8
REMARK VINA RESULT:    -5.109      2.539      6.863
REMARK INTER + INTRA:          -8.549
REMARK INTER:                  -7.541
REMARK INTRA:                  -1.009
REMARK UNBOUND:                -1.051
REMARK  12 active torsions:
REMARK  status: ('A' for Active; 'I' for Inactive)
REMARK    1  A    between atoms: O_1  and  C_12 
REMARK    2  A    between atoms: O_1  and  C_14 
REMARK    3  A    between atoms: O_4  and  C_13 
REMARK    4  A    between atoms: O_5  and  C_16 
REMARK    5  A    between atoms: O_6  and  C_17 
REMARK    6  A    between atoms: O_7  and  C_18 
REMARK    7  A    between atoms: O_8  and  C_19 
REMARK    8  A    between atoms: O_9  and  C_21 
REMARK    9  A    between atoms: O_10  and  C_22 
REMARK   10  A    between atoms: O_11  and  C_23 
REMARK   11  A    between atoms: C_15  and  C_22 
REMARK   12  A    between atoms: C_20  and  C_23 
ROOT
HETATM    1  O   UNL     1      40.803  45.529  36.019  1.00  0.00    -0.326 OA
ENDROOT
BRANCH   1   2
HETATM    2  C   UNL     1      41.269  44.291  36.595  1.00  0.00     0.177 C 
HETATM    3  C   UNL     1      41.851  44.540  38.003  1.00  0.00     0.172 C 
HETATM    4  C   UNL     1      42.068  43.229  38.769  1.00  0.00     0.197 C 
HETATM    5  C   UNL     1      40.820  42.338  38.693  1.00  0.00     0.263 C 
HETATM    6  O   UNL     1      40.429  42.108  37.351  1.00  0.00    -0.327 OA
HETATM    7  C   UNL     1      40.069  43.332  36.690  1.00  0.00     0.177 C 
BRANCH   3   8
HETATM    8  O   UNL     1      43.113  45.224  37.894  1.00  0.00    -0.380 OA
HETATM    9  H   UNL     1      43.784  44.517  37.799  1.00  0.00     0.211 HD
ENDBRANCH   3   8
BRANCH   4  10
HETATM   10  O   UNL     1      42.367  43.504  40.149  1.00  0.00    -0.378 OA
HETATM   11  H   UNL     1      42.217  42.661  40.618  1.00  0.00     0.211 HD
ENDBRANCH   4  10
BRANCH   5  12
HETATM   12  O   UNL     1      41.136  41.083  39.282  1.00  0.00    -0.359 OA
HETATM   13  H   UNL     1      40.717  40.419  38.710  1.00  0.00     0.213 HD
ENDBRANCH   5  12
BRANCH   7  14
HETATM   14  C   UNL     1      39.550  42.957  35.297  1.00  0.00     0.170 C 
BRANCH  14  15
HETATM   15  O   UNL     1      39.463  41.537  35.186  1.00  0.00    -0.380 OA
HETATM   16  H   UNL     1      38.604  41.292  35.581  1.00  0.00     0.211 HD
ENDBRANCH  14  15
ENDBRANCH   7  14
ENDBRANCH   1   2
BRANCH   1  17
HETATM   17  C   UNL     1      41.706  46.102  35.064  1.00  0.00     0.266 C 
HETATM   18  O   UNL     1      42.578  47.014  35.723  1.00  0.00    -0.326 OA
HETATM   19  C   UNL     1      43.557  47.573  34.818  1.00  0.00     0.176 C 
HETATM   20  C   UNL     1      42.833  48.452  33.787  1.00  0.00     0.170 C 
HETATM   21  C   UNL     1      41.801  47.585  33.038  1.00  0.00     0.172 C 
HETATM   22  C   UNL     1      40.869  46.848  34.008  1.00  0.00     0.197 C 
BRANCH  19  23
HETATM   23  C   UNL     1      44.563  48.358  35.663  1.00  0.00     0.170 C 
BRANCH  23  24
HETATM   24  O   UNL     1      43.882  48.964  36.764  1.00  0.00    -0.380 OA
HETATM   25  H   UNL     1      44.364  48.712  37.579  1.00  0.00     0.211 HD
ENDBRANCH  23  24
ENDBRANCH  19  23
BRANCH  20  26
HETATM   26  O   UNL     1      42.206  49.558  34.451  1.00  0.00    -0.380 OA
HETATM   27  H   UNL     1      42.010  49.307  35.369  1.00  0.00     0.211 HD
ENDBRANCH  20  26
BRANCH  21  28
HETATM   28  O   UNL     1      41.027  48.370  32.128  1.00  0.00    -0.380 OA
HETATM   29  H   UNL     1      40.309  48.767  32.658  1.00  0.00     0.211 HD
ENDBRANCH  21  28
BRANCH  22  30
HETATM   30  O   UNL     1      40.046  45.940  33.259  1.00  0.00    -0.378 OA
HETATM   31  H   UNL     1      39.653  46.465  32.535  1.00  0.00     0.211 HD
ENDBRANCH  22  30
ENDBRANCH   1  17
TORSDOF 12
ENDMDL
MODEL 9
REMARK VINA RESULT:    -5.057      1.769      5.929
REMARK INTER + INTRA:          -8.472
REMARK INTER:                  -6.932
REMARK INTRA:                  -1.540
REMARK UNBOUND:                -1.051
REMARK  12 active torsions:
REMARK  status: ('A' for Active; 'I' for Inactive)
REMARK    1  A    between atoms: O_1  and  C_12 
REMARK    2  A    between atoms: O_1  and  C_14 
REMARK    3  A    between atoms: O_4  and  C_13 
REMARK    4  A    between atoms: O_5  and  C_16 
REMARK    5  A    between atoms: O_6  and  C_17 
REMARK    6  A    between atoms: O_7  and  C_18 
REMARK    7  A    between atoms: O_8  and  C_19 
REMARK    8  A    between atoms: O_9  and  C_21 
REMARK    9  A    between atoms: O_10  and  C_22 
REMARK   10  A    between atoms: O_11  and  C_23 
REMARK   11  A    between atoms: C_15  and  C_22 
REMARK   12  A    between atoms: C_20  and  C_23 
ROOT
HETATM    1  O   UNL     1      41.910  45.221  32.584  1.00  0.00    -0.326 OA
ENDROOT
BRANCH   1   2
HETATM    2  C   UNL     1      40.895  45.337  33.602  1.00  0.00     0.177 C 
HETATM    3  C   UNL     1      41.321  44.576  34.876  1.00  0.00     0.172 C 
HETATM    4  C   UNL     1      40.431  44.927  36.074  1.00  0.00     0.197 C 
HETATM    5  C   UNL     1      40.271  46.449  36.209  1.00  0.00     0.263 C 
HETATM    6  O   UNL     1      39.792  47.027  35.007  1.00  0.00    -0.327 OA
HETATM    7  C   UNL     1      40.717  46.831  33.925  1.00  0.00     0.177 C 
BRANCH   3   8
HETATM    8  O   UNL     1      41.242  43.158  34.644  1.00  0.00    -0.380 OA
HETATM    9  H   UNL     1      40.404  42.873  35.062  1.00  0.00     0.211 HD
ENDBRANCH   3   8
BRANCH   4  10
HETATM   10  O   UNL     1      41.002  44.405  37.287  1.00  0.00    -0.378 OA
HETATM   11  H   UNL     1      40.241  44.125  37.830  1.00  0.00     0.211 HD
ENDBRANCH   4  10
BRANCH   5  12
HETATM   12  O   UNL     1      39.317  46.705  37.232  1.00  0.00    -0.359 OA
HETATM   13  H   UNL     1      38.569  46.116  37.038  1.00  0.00     0.213 HD
ENDBRANCH   5  12
BRANCH   7  14
HETATM   14  C   UNL     1      40.164  47.596  32.716  1.00  0.00     0.170 C 
BRANCH  14  15
HETATM   15  O   UNL     1      41.188  48.422  32.162  1.00  0.00    -0.380 OA
HETATM   16  H   UNL     1      41.985  47.860  32.116  1.00  0.00     0.211 HD
ENDBRANCH  14  15
ENDBRANCH   7  14
ENDBRANCH   1   2
BRANCH   1  17
HETATM   17  C   UNL     1      43.215  45.631  33.015  1.00  0.00     0.266 C 
HETATM   18  O   UNL     1      43.537  46.886  32.428  1.00  0.00    -0.326 OA
HETATM   19  C   UNL     1      44.817  47.382  32.881  1.00  0.00     0.176 C 
HETATM   20  C   UNL     1      45.921  46.449  32.359  1.00  0.00     0.170 C 
HETATM   21  C   UNL     1      45.649  45.024  32.881  1.00  0.00     0.172 C 
HETATM   22  C   UNL     1      44.224  44.562  32.553  1.00  0.00     0.197 C 
BRANCH  19  23
HETATM   23  C   UNL     1      44.960  48.815  32.365  1.00  0.00     0.170 C 
BRANCH  23  24
HETATM   24  O   UNL     1      44.126  48.989  31.217  1.00  0.00    -0.380 OA
HETATM   25  H   UNL     1      44.509  49.717  30.686  1.00  0.00     0.211 HD
ENDBRANCH  23  24
ENDBRANCH  19  23
BRANCH  20  26
HETATM   26  O   UNL     1      45.948  46.487  30.926  1.00  0.00    -0.380 OA
HETATM   27  H   UNL     1      46.680  45.932  30.609  1.00  0.00     0.211 HD
ENDBRANCH  20  26
BRANCH  21  28
HETATM   28  O   UNL     1      46.593  44.089  32.352  1.00  0.00    -0.380 OA
HETATM   29  H   UNL     1      46.592  43.330  32.966  1.00  0.00     0.211 HD
ENDBRANCH  21  28
BRANCH  22  30
HETATM   30  O   UNL     1      43.984  43.304  33.202  1.00  0.00    -0.378 OA
HETATM   31  H   UNL     1      44.511  43.319  34.025  1.00  0.00     0.211 HD
ENDBRANCH  22  30
ENDBRANCH   1  17
TORSDOF 12
ENDMDL
MODEL 10
REMARK VINA RESULT:    -5.041      2.874      4.335
REMARK INTER + INTRA:          -8.449
REMARK INTER:                  -7.102
REMARK INTRA:                  -1.347
REMARK UNBOUND:                -1.051
REMARK  12 active torsions:
REMARK  status: ('A' for Active; 'I' for Inactive)
REMARK    1  A    between atoms: O_1  and  C_12 
REMARK    2  A    between atoms: O_1  and  C_14 
REMARK    3  A    between atoms: O_4  and  C_13 
REMARK    4  A    between atoms: O_5  and  C_16 
REMARK    5  A    between atoms: O_6  and  C_17 
REMARK    6  A    between atoms: O_7  and  C_18 
REMARK    7  A    between atoms: O_8  and  C_19 
REMARK    8  A    between atoms: O_9  and  C_21 
REMARK    9  A    between atoms: O_10  and  C_22 
REMARK   10  A    between atoms: O_11  and  C_23 
REMARK   11  A    between atoms: C_15  and  C_22 
REMARK   12  A    between atoms: C_20  and  C_23 
ROOT
HETATM    1  O   UNL     1      43.317  47.370  33.709  1.00  0.00    -0.326 OA
ENDROOT
BRANCH   1   2
HETATM    2  C   UNL     1      44.042  48.399  34.414  1.00  0.00     0.177 C 
HETATM    3  C   UNL     1      44.798  47.796  35.618  1.00  0.00     0.172 C 
HETATM    4  C   UNL     1      45.817  48.781  36.202  1.00  0.00     0.197 C 
HETATM    5  C   UNL     1      46.681  49.396  35.091  1.00  0.00     0.263 C 
HETATM    6  O   UNL     1      45.882  49.996  34.086  1.00  0.00    -0.327 OA
HETATM    7  C   UNL     1      45.047  49.027  33.432  1.00  0.00     0.177 C 
BRANCH   3   8
HETATM    8  O   UNL     1      43.861  47.438  36.650  1.00  0.00    -0.380 OA
HETATM    9  H   UNL     1      44.151  46.559  36.970  1.00  0.00     0.211 HD
ENDBRANCH   3   8
BRANCH   4  10
HETATM   10  O   UNL     1      46.671  48.111  37.146  1.00  0.00    -0.378 OA
HETATM   11  H   UNL     1      46.226  47.263  37.337  1.00  0.00     0.211 HD
ENDBRANCH   4  10
BRANCH   5  12
HETATM   12  O   UNL     1      47.493  50.410  35.672  1.00  0.00    -0.359 OA
HETATM   13  H   UNL     1      46.950  50.801  36.375  1.00  0.00     0.213 HD
ENDBRANCH   5  12
BRANCH   7  14
HETATM   14  C   UNL     1      44.324  49.754  32.291  1.00  0.00     0.170 C 
BRANCH  14  15
HETATM   15  O   UNL     1      43.973  48.816  31.273  1.00  0.00    -0.380 OA
HETATM   16  H   UNL     1      44.292  49.204  30.435  1.00  0.00     0.211 HD
ENDBRANCH  14  15
ENDBRANCH   7  14
ENDBRANCH   1   2
BRANCH   1  17
HETATM   17  C   UNL     1      41.953  47.231  34.127  1.00  0.00     0.266 C 
HETATM   18  O   UNL     1      41.794  46.009  34.838  1.00  0.00    -0.326 OA
HETATM   19  C   UNL     1      40.449  45.848  35.341  1.00  0.00     0.176 C 
HETATM   20  C   UNL     1      39.491  45.695  34.151  1.00  0.00     0.170 C 
HETATM   21  C   UNL     1      39.613  46.945  33.256  1.00  0.00     0.172 C 
HETATM   22  C   UNL     1      41.070  47.221  32.864  1.00  0.00     0.197 C 
BRANCH  19  23
HETATM   23  C   UNL     1      40.450  44.625  36.261  1.00  0.00     0.170 C 
BRANCH  23  24
HETATM   24  O   UNL     1      39.221  43.912  36.100  1.00  0.00    -0.380 OA
HETATM   25  H   UNL     1      38.817  44.213  35.260  1.00  0.00     0.211 HD
ENDBRANCH  23  24
ENDBRANCH  19  23
BRANCH  20  26
HETATM   26  O   UNL     1      39.805  44.498  33.426  1.00  0.00    -0.380 OA
HETATM   27  H   UNL     1      40.765  44.350  33.461  1.00  0.00     0.211 HD
ENDBRANCH  20  26
BRANCH  21  28
HETATM   28  O   UNL     1      38.812  46.821  32.079  1.00  0.00    -0.380 OA
HETATM   29  H   UNL     1      38.429  45.922  32.107  1.00  0.00     0.211 HD
ENDBRANCH  21  28
BRANCH  22  30
HETATM   30  O   UNL     1      41.134  48.478  32.174  1.00  0.00    -0.378 OA
HETATM   31  H   UNL     1      41.639  48.312  31.354  1.00  0.00     0.211 HD
ENDBRANCH  22  30
ENDBRANCH   1  17
TORSDOF 12
ENDMDL
