MODEL 1
REMARK VINA RESULT:    -4.849      0.000      0.000
REMARK INTER + INTRA:          -8.587
REMARK INTER:                  -7.258
REMARK INTRA:                  -1.329
REMARK UNBOUND:                -1.329
REMARK  11 active torsions:
REMARK  status: ('A' for Active; 'I' for Inactive)
REMARK    1  A    between atoms: S_1  and  C_17 
REMARK    2  A    between atoms: O_3  and  C_16 
REMARK    3  A    between atoms: O_3  and  C_18 
REMARK    4  A    between atoms: O_4  and  C_12 
REMARK    5  A    between atoms: O_5  and  C_14 
REMARK    6  A    between atoms: O_6  and  C_15 
REMARK    7  A    between atoms: O_10  and  C_19 
REMARK    8  A    between atoms: O_11  and  C_20 
REMARK    9  A    between atoms: C_13  and  C_17 
REMARK   10  A    between atoms: C_18  and  C_19 
REMARK   11  A    between atoms: C_19  and  C_20 
ROOT
HETATM    1  O   UNL     1      42.724  46.266  34.783  1.00  0.00    -0.328 OA
HETATM    2  C   UNL     1      41.447  47.074  32.859  1.00  0.00     0.168 C 
HETATM    3  C   UNL     1      42.510  46.073  33.360  1.00  0.00     0.166 C 
HETATM    4  C   UNL     1      40.160  46.936  33.696  1.00  0.00     0.172 C 
HETATM    5  C   UNL     1      40.442  47.010  35.197  1.00  0.00     0.197 C 
HETATM    6  C   UNL     1      41.560  46.020  35.566  1.00  0.00     0.266 C 
ENDROOT
BRANCH   6   7
HETATM    7  O   UNL     1      41.092  44.675  35.402  1.00  0.00    -0.326 OA
BRANCH   7   8
HETATM    8  C   UNL     1      41.291  43.901  36.589  1.00  0.00     0.177 C 
BRANCH   8   9
HETATM    9  C   UNL     1      39.992  43.211  37.006  1.00  0.00     0.170 C 
BRANCH   9  10
HETATM   10  O   UNL     1      38.952  43.528  36.067  1.00  0.00    -0.380 OA
HETATM   11  H   UNL     1      38.533  42.661  35.885  1.00  0.00     0.211 HD
ENDBRANCH   9  10
BRANCH   9  12
HETATM   12  C   UNL     1      39.547  43.653  38.403  1.00  0.00     0.169 C 
BRANCH  12  13
HETATM   13  O   UNL     1      38.937  44.947  38.308  1.00  0.00    -0.380 OA
HETATM   14  H   UNL     1      39.572  45.464  37.771  1.00  0.00     0.211 HD
ENDBRANCH  12  13
ENDBRANCH   9  12
ENDBRANCH   8   9
ENDBRANCH   7   8
ENDBRANCH   6   7
BRANCH   5  15
HETATM   15  O   UNL     1      39.259  46.718  35.964  1.00  0.00    -0.378 OA
HETATM   16  H   UNL     1      38.600  46.400  35.318  1.00  0.00     0.211 HD
ENDBRANCH   5  15
BRANCH   3  17
HETATM   17  C   UNL     1      43.879  46.228  32.706  1.00  0.00     0.178 C 
BRANCH  17  18
HETATM   18  S   UNL     1      44.014  45.322  31.190  1.00  0.00     0.118 S 
HETATM   19  O   UNL     1      43.808  46.361  30.184  1.00  0.00    -0.594 OA
HETATM   20  O   UNL     1      42.941  44.334  31.278  1.00  0.00    -0.594 OA
HETATM   21  O   UNL     1      45.366  44.777  31.245  1.00  0.00    -0.594 OA
ENDBRANCH  17  18
ENDBRANCH   3  17
BRANCH   4  22
HETATM   22  O   UNL     1      39.246  47.977  33.298  1.00  0.00    -0.380 OA
HETATM   23  H   UNL     1      38.633  47.522  32.683  1.00  0.00     0.211 HD
ENDBRANCH   4  22
BRANCH   2  24
HETATM   24  O   UNL     1      41.019  46.925  31.502  1.00  0.00    -0.380 OA
HETATM   25  H   UNL     1      40.030  46.851  31.466  1.00  0.00     0.211 HD
ENDBRANCH   2  24
TORSDOF 11
ENDMDL
MODEL 2
REMARK VINA RESULT:    -4.645      2.685      6.228
REMARK INTER + INTRA:          -8.283
REMARK INTER:                  -7.013
REMARK INTRA:                  -1.269
REMARK UNBOUND:                -1.329
REMARK  11 active torsions:
REMARK  status: ('A' for Active; 'I' for Inactive)
REMARK    1  A    between atoms: S_1  and  C_17 
REMARK    2  A    between atoms: O_3  and  C_16 
REMARK    3  A    between atoms: O_3  and  C_18 
REMARK    4  A    between atoms: O_4  and  C_12 
REMARK    5  A    between atoms: O_5  and  C_14 
REMARK    6  A    between atoms: O_6  and  C_15 
REMARK    7  A    between atoms: O_10  and  C_19 
REMARK    8  A    between atoms: O_11  and  C_20 
REMARK    9  A    between atoms: C_13  and  C_17 
REMARK   10  A    between atoms: C_18  and  C_19 
REMARK   11  A    between atoms: C_19  and  C_20 
ROOT
HETATM    1  O   UNL     1      42.238  44.742  35.637  1.00  0.00    -0.328 OA
HETATM    2  C   UNL     1      42.484  42.476  34.748  1.00  0.00     0.168 C 
HETATM    3  C   UNL     1      41.566  43.462  35.501  1.00  0.00     0.166 C 
HETATM    4  C   UNL     1      42.918  43.084  33.401  1.00  0.00     0.172 C 
HETATM    5  C   UNL     1      43.499  44.489  33.568  1.00  0.00     0.197 C 
HETATM    6  C   UNL     1      42.531  45.359  34.387  1.00  0.00     0.266 C 
ENDROOT
BRANCH   6   7
HETATM    7  O   UNL     1      41.338  45.603  33.631  1.00  0.00    -0.326 OA
BRANCH   7   8
HETATM    8  C   UNL     1      40.957  46.981  33.681  1.00  0.00     0.177 C 
BRANCH   8   9
HETATM    9  C   UNL     1      41.221  47.663  32.339  1.00  0.00     0.170 C 
BRANCH   9  10
HETATM   10  O   UNL     1      41.235  46.681  31.292  1.00  0.00    -0.380 OA
HETATM   11  H   UNL     1      42.103  46.239  31.402  1.00  0.00     0.211 HD
ENDBRANCH   9  10
BRANCH   9  12
HETATM   12  C   UNL     1      42.563  48.401  32.341  1.00  0.00     0.169 C 
BRANCH  12  13
HETATM   13  O   UNL     1      43.326  47.980  31.203  1.00  0.00    -0.380 OA
HETATM   14  H   UNL     1      43.955  47.328  31.574  1.00  0.00     0.211 HD
ENDBRANCH  12  13
ENDBRANCH   9  12
ENDBRANCH   8   9
ENDBRANCH   7   8
ENDBRANCH   6   7
BRANCH   5  15
HETATM   15  O   UNL     1      43.748  45.105  32.290  1.00  0.00    -0.378 OA
HETATM   16  H   UNL     1      44.413  44.539  31.852  1.00  0.00     0.211 HD
ENDBRANCH   5  15
BRANCH   3  17
HETATM   17  C   UNL     1      41.201  43.029  36.917  1.00  0.00     0.178 C 
BRANCH  17  18
HETATM   18  S   UNL     1      39.914  41.813  36.945  1.00  0.00     0.118 S 
HETATM   19  O   UNL     1      39.321  41.952  35.617  1.00  0.00    -0.594 OA
HETATM   20  O   UNL     1      39.055  42.239  38.047  1.00  0.00    -0.594 OA
HETATM   21  O   UNL     1      40.638  40.566  37.169  1.00  0.00    -0.594 OA
ENDBRANCH  17  18
ENDBRANCH   3  17
BRANCH   4  22
HETATM   22  O   UNL     1      43.883  42.203  32.794  1.00  0.00    -0.380 OA
HETATM   23  H   UNL     1      44.312  42.765  32.115  1.00  0.00     0.211 HD
ENDBRANCH   4  22
BRANCH   2  24
HETATM   24  O   UNL     1      41.916  41.206  34.411  1.00  0.00    -0.380 OA
HETATM   25  H   UNL     1      42.590  40.490  34.541  1.00  0.00     0.211 HD
ENDBRANCH   2  24
TORSDOF 11
ENDMDL
MODEL 3
REMARK VINA RESULT:    -4.562      2.864      4.899
REMARK INTER + INTRA:          -8.158
REMARK INTER:                  -6.744
REMARK INTRA:                  -1.414
REMARK UNBOUND:                -1.329
REMARK  11 active torsions:
REMARK  status: ('A' for Active; 'I' for Inactive)
REMARK    1  A    between atoms: S_1  and  C_17 
REMARK    2  A    between atoms: O_3  and  C_16 
REMARK    3  A    between atoms: O_3  and  C_18 
REMARK    4  A    between atoms: O_4  and  C_12 
REMARK    5  A    between atoms: O_5  and  C_14 
REMARK    6  A    between atoms: O_6  and  C_15 
REMARK    7  A    between atoms: O_10  and  C_19 
REMARK    8  A    between atoms: O_11  and  C_20 
REMARK    9  A    between atoms: C_13  and  C_17 
REMARK   10  A    between atoms: C_18  and  C_19 
REMARK   11  A    between atoms: C_19  and  C_20 
ROOT
HETATM    1  O   UNL     1      42.608  45.281  34.611  1.00  0.00    -0.328 OA
HETATM    2  C   UNL     1      40.694  46.024  33.282  1.00  0.00     0.168 C 
HETATM    3  C   UNL     1      41.178  45.112  34.430  1.00  0.00     0.166 C 
HETATM    4  C   UNL     1      41.108  47.482  33.558  1.00  0.00     0.172 C 
HETATM    5  C   UNL     1      42.598  47.604  33.878  1.00  0.00     0.197 C 
HETATM    6  C   UNL     1      42.977  46.605  34.984  1.00  0.00     0.266 C 
ENDROOT
BRANCH   6   7
HETATM    7  O   UNL     1      42.360  46.991  36.220  1.00  0.00    -0.326 OA
BRANCH   7   8
HETATM    8  C   UNL     1      43.253  46.828  37.326  1.00  0.00     0.177 C 
BRANCH   8   9
HETATM    9  C   UNL     1      43.796  48.182  37.784  1.00  0.00     0.170 C 
BRANCH   9  10
HETATM   10  O   UNL     1      42.971  49.236  37.264  1.00  0.00    -0.380 OA
HETATM   11  H   UNL     1      42.066  48.861  37.303  1.00  0.00     0.211 HD
ENDBRANCH   9  10
BRANCH   9  12
HETATM   12  C   UNL     1      45.234  48.399  37.302  1.00  0.00     0.169 C 
BRANCH  12  13
HETATM   13  O   UNL     1      45.208  49.177  36.098  1.00  0.00    -0.380 OA
HETATM   14  H   UNL     1      44.254  49.321  35.936  1.00  0.00     0.211 HD
ENDBRANCH  12  13
ENDBRANCH   9  12
ENDBRANCH   8   9
ENDBRANCH   7   8
ENDBRANCH   6   7
BRANCH   5  15
HETATM   15  O   UNL     1      42.935  48.941  34.291  1.00  0.00    -0.378 OA
HETATM   16  H   UNL     1      42.800  49.501  33.502  1.00  0.00     0.211 HD
ENDBRANCH   5  15
BRANCH   3  17
HETATM   17  C   UNL     1      40.960  43.622  34.186  1.00  0.00     0.178 C 
BRANCH  17  18
HETATM   18  S   UNL     1      39.486  43.017  34.959  1.00  0.00     0.118 S 
HETATM   19  O   UNL     1      38.467  43.283  33.947  1.00  0.00    -0.594 OA
HETATM   20  O   UNL     1      39.371  43.826  36.170  1.00  0.00    -0.594 OA
HETATM   21  O   UNL     1      39.781  41.606  35.181  1.00  0.00    -0.594 OA
ENDBRANCH  17  18
ENDBRANCH   3  17
BRANCH   4  22
HETATM   22  O   UNL     1      40.768  48.277  32.406  1.00  0.00    -0.380 OA
HETATM   23  H   UNL     1      39.787  48.286  32.413  1.00  0.00     0.211 HD
ENDBRANCH   4  22
BRANCH   2  24
HETATM   24  O   UNL     1      39.280  46.079  33.064  1.00  0.00    -0.380 OA
HETATM   25  H   UNL     1      38.801  45.884  33.910  1.00  0.00     0.211 HD
ENDBRANCH   2  24
TORSDOF 11
ENDMDL
MODEL 4
REMARK VINA RESULT:    -4.557      2.486      5.876
REMARK INTER + INTRA:          -8.151
REMARK INTER:                  -6.751
REMARK INTRA:                  -1.400
REMARK UNBOUND:                -1.329
REMARK  11 active torsions:
REMARK  status: ('A' for Active; 'I' for Inactive)
REMARK    1  A    between atoms: S_1  and  C_17 
REMARK    2  A    between atoms: O_3  and  C_16 
REMARK    3  A    between atoms: O_3  and  C_18 
REMARK    4  A    between atoms: O_4  and  C_12 
REMARK    5  A    between atoms: O_5  and  C_14 
REMARK    6  A    between atoms: O_6  and  C_15 
REMARK    7  A    between atoms: O_10  and  C_19 
REMARK    8  A    between atoms: O_11  and  C_20 
REMARK    9  A    between atoms: C_13  and  C_17 
REMARK   10  A    between atoms: C_18  and  C_19 
REMARK   11  A    between atoms: C_19  and  C_20 
ROOT
HETATM    1  O   UNL     1      42.377  45.330  33.514  1.00  0.00    -0.328 OA
HETATM    2  C   UNL     1      40.213  45.904  34.501  1.00  0.00     0.168 C 
HETATM    3  C   UNL     1      41.604  45.278  34.742  1.00  0.00     0.166 C 
HETATM    4  C   UNL     1      40.370  47.329  33.937  1.00  0.00     0.172 C 
HETATM    5  C   UNL     1      41.300  47.367  32.723  1.00  0.00     0.197 C 
HETATM    6  C   UNL     1      42.622  46.657  33.059  1.00  0.00     0.266 C 
ENDROOT
BRANCH   6   7
HETATM    7  O   UNL     1      43.349  47.419  34.033  1.00  0.00    -0.326 OA
BRANCH   7   8
HETATM    8  C   UNL     1      44.697  47.654  33.616  1.00  0.00     0.177 C 
BRANCH   8   9
HETATM    9  C   UNL     1      44.937  49.145  33.381  1.00  0.00     0.170 C 
BRANCH   9  10
HETATM   10  O   UNL     1      43.740  49.881  33.680  1.00  0.00    -0.380 OA
HETATM   11  H   UNL     1      43.903  50.760  33.280  1.00  0.00     0.211 HD
ENDBRANCH   9  10
BRANCH   9  12
HETATM   12  C   UNL     1      45.337  49.426  31.929  1.00  0.00     0.169 C 
BRANCH  12  13
HETATM   13  O   UNL     1      44.295  48.959  31.062  1.00  0.00    -0.380 OA
HETATM   14  H   UNL     1      43.481  49.082  31.590  1.00  0.00     0.211 HD
ENDBRANCH  12  13
ENDBRANCH   9  12
ENDBRANCH   8   9
ENDBRANCH   7   8
ENDBRANCH   6   7
BRANCH   5  15
HETATM   15  O   UNL     1      41.562  48.721  32.310  1.00  0.00    -0.378 OA
HETATM   16  H   UNL     1      42.208  48.652  31.582  1.00  0.00     0.211 HD
ENDBRANCH   5  15
BRANCH   3  17
HETATM   17  C   UNL     1      41.571  43.809  35.153  1.00  0.00     0.178 C 
BRANCH  17  18
HETATM   18  S   UNL     1      41.215  43.594  36.874  1.00  0.00     0.118 S 
HETATM   19  O   UNL     1      42.063  42.460  37.232  1.00  0.00    -0.594 OA
HETATM   20  O   UNL     1      39.781  43.317  36.901  1.00  0.00    -0.594 OA
HETATM   21  O   UNL     1      41.612  44.870  37.459  1.00  0.00    -0.594 OA
ENDBRANCH  17  18
ENDBRANCH   3  17
BRANCH   4  22
HETATM   22  O   UNL     1      39.062  47.827  33.592  1.00  0.00    -0.380 OA
HETATM   23  H   UNL     1      38.466  47.082  33.815  1.00  0.00     0.211 HD
ENDBRANCH   4  22
BRANCH   2  24
HETATM   24  O   UNL     1      39.374  46.055  35.650  1.00  0.00    -0.380 OA
HETATM   25  H   UNL     1      39.499  46.957  36.043  1.00  0.00     0.211 HD
ENDBRANCH   2  24
TORSDOF 11
ENDMDL
MODEL 5
REMARK VINA RESULT:    -4.449      3.114      6.228
REMARK INTER + INTRA:          -7.989
REMARK INTER:                  -6.823
REMARK INTRA:                  -1.166
REMARK UNBOUND:                -1.329
REMARK  11 active torsions:
REMARK  status: ('A' for Active; 'I' for Inactive)
REMARK    1  A    between atoms: S_1  and  C_17 
REMARK    2  A    between atoms: O_3  and  C_16 
REMARK    3  A    between atoms: O_3  and  C_18 
REMARK    4  A    between atoms: O_4  and  C_12 
REMARK    5  A    between atoms: O_5  and  C_14 
REMARK    6  A    between atoms: O_6  and  C_15 
REMARK    7  A    between atoms: O_10  and  C_19 
REMARK    8  A    between atoms: O_11  and  C_20 
REMARK    9  A    between atoms: C_13  and  C_17 
REMARK   10  A    between atoms: C_18  and  C_19 
REMARK   11  A    between atoms: C_19  and  C_20 
ROOT
HETATM    1  O   UNL     1      42.391  43.446  35.714  1.00  0.00    -0.328 OA
HETATM    2  C   UNL     1      40.245  42.339  36.110  1.00  0.00     0.168 C 
HETATM    3  C   UNL     1      41.480  43.004  36.755  1.00  0.00     0.166 C 
HETATM    4  C   UNL     1      39.596  43.304  35.100  1.00  0.00     0.172 C 
HETATM    5  C   UNL     1      40.613  43.856  34.099  1.00  0.00     0.197 C 
HETATM    6  C   UNL     1      41.825  44.429  34.852  1.00  0.00     0.266 C 
ENDROOT
BRANCH   6   7
HETATM    7  O   UNL     1      41.435  45.602  35.580  1.00  0.00    -0.326 OA
BRANCH   7   8
HETATM    8  C   UNL     1      42.302  46.705  35.301  1.00  0.00     0.177 C 
BRANCH   8   9
HETATM    9  C   UNL     1      41.557  47.797  34.534  1.00  0.00     0.170 C 
BRANCH   9  10
HETATM   10  O   UNL     1      40.142  47.559  34.606  1.00  0.00    -0.380 OA
HETATM   11  H   UNL     1      39.881  47.435  33.669  1.00  0.00     0.211 HD
ENDBRANCH   9  10
BRANCH   9  12
HETATM   12  C   UNL     1      41.976  47.831  33.061  1.00  0.00     0.169 C 
BRANCH  12  13
HETATM   13  O   UNL     1      40.953  48.488  32.302  1.00  0.00    -0.380 OA
HETATM   14  H   UNL     1      41.312  48.501  31.391  1.00  0.00     0.211 HD
ENDBRANCH  12  13
ENDBRANCH   9  12
ENDBRANCH   8   9
ENDBRANCH   7   8
ENDBRANCH   6   7
BRANCH   5  15
HETATM   15  O   UNL     1      40.026  44.875  33.269  1.00  0.00    -0.378 OA
HETATM   16  H   UNL     1      39.217  45.159  33.735  1.00  0.00     0.211 HD
ENDBRANCH   5  15
BRANCH   3  17
HETATM   17  C   UNL     1      42.294  42.082  37.658  1.00  0.00     0.178 C 
BRANCH  17  18
HETATM   18  S   UNL     1      41.624  41.969  39.293  1.00  0.00     0.118 S 
HETATM   19  O   UNL     1      40.902  40.701  39.251  1.00  0.00    -0.594 OA
HETATM   20  O   UNL     1      40.776  43.154  39.404  1.00  0.00    -0.594 OA
HETATM   21  O   UNL     1      42.811  41.975  40.141  1.00  0.00    -0.594 OA
ENDBRANCH  17  18
ENDBRANCH   3  17
BRANCH   4  22
HETATM   22  O   UNL     1      38.539  42.602  34.417  1.00  0.00    -0.380 OA
HETATM   23  H   UNL     1      37.731  42.876  34.900  1.00  0.00     0.211 HD
ENDBRANCH   4  22
BRANCH   2  24
HETATM   24  O   UNL     1      39.185  41.968  36.997  1.00  0.00    -0.380 OA
HETATM   25  H   UNL     1      38.605  41.290  36.563  1.00  0.00     0.211 HD
ENDBRANCH   2  24
TORSDOF 11
ENDMDL
MODEL 6
REMARK VINA RESULT:    -4.405      1.756      2.300
REMARK INTER + INTRA:          -7.923
REMARK INTER:                  -6.522
REMARK INTRA:                  -1.401
REMARK UNBOUND:                -1.329
REMARK  11 active torsions:
REMARK  status: ('A' for Active; 'I' for Inactive)
REMARK    1  A    between atoms: S_1  and  C_17 
REMARK    2  A    between atoms: O_3  and  C_16 
REMARK    3  A    between atoms: O_3  and  C_18 
REMARK    4  A    between atoms: O_4  and  C_12 
REMARK    5  A    between atoms: O_5  and  C_14 
REMARK    6  A    between atoms: O_6  and  C_15 
REMARK    7  A    between atoms: O_10  and  C_19 
REMARK    8  A    between atoms: O_11  and  C_20 
REMARK    9  A    between atoms: C_13  and  C_17 
REMARK   10  A    between atoms: C_18  and  C_19 
REMARK   11  A    between atoms: C_19  and  C_20 
ROOT
HETATM    1  O   UNL     1      42.300  45.618  34.735  1.00  0.00    -0.328 OA
HETATM    2  C   UNL     1      42.377  46.768  32.577  1.00  0.00     0.168 C 
HETATM    3  C   UNL     1      42.698  45.469  33.347  1.00  0.00     0.166 C 
HETATM    4  C   UNL     1      40.890  47.128  32.751  1.00  0.00     0.172 C 
HETATM    5  C   UNL     1      40.471  47.144  34.222  1.00  0.00     0.197 C 
HETATM    6  C   UNL     1      40.901  45.832  34.900  1.00  0.00     0.266 C 
ENDROOT
BRANCH   6   7
HETATM    7  O   UNL     1      40.138  44.739  34.370  1.00  0.00    -0.326 OA
BRANCH   7   8
HETATM    8  C   UNL     1      39.722  43.840  35.403  1.00  0.00     0.177 C 
BRANCH   8   9
HETATM    9  C   UNL     1      40.405  42.482  35.242  1.00  0.00     0.170 C 
BRANCH   9  10
HETATM   10  O   UNL     1      39.457  41.432  35.492  1.00  0.00    -0.380 OA
HETATM   11  H   UNL     1      38.772  41.570  34.804  1.00  0.00     0.211 HD
ENDBRANCH   9  10
BRANCH   9  12
HETATM   12  C   UNL     1      41.579  42.327  36.214  1.00  0.00     0.169 C 
BRANCH  12  13
HETATM   13  O   UNL     1      42.720  43.007  35.675  1.00  0.00    -0.380 OA
HETATM   14  H   UNL     1      42.373  43.891  35.438  1.00  0.00     0.211 HD
ENDBRANCH  12  13
ENDBRANCH   9  12
ENDBRANCH   8   9
ENDBRANCH   7   8
ENDBRANCH   6   7
BRANCH   5  15
HETATM   15  O   UNL     1      39.050  47.321  34.358  1.00  0.00    -0.378 OA
HETATM   16  H   UNL     1      38.744  47.658  33.494  1.00  0.00     0.211 HD
ENDBRANCH   5  15
BRANCH   3  17
HETATM   17  C   UNL     1      44.179  45.101  33.374  1.00  0.00     0.178 C 
BRANCH  17  18
HETATM   18  S   UNL     1      44.551  43.709  32.344  1.00  0.00     0.118 S 
HETATM   19  O   UNL     1      43.756  42.646  32.952  1.00  0.00    -0.594 OA
HETATM   20  O   UNL     1      45.996  43.549  32.484  1.00  0.00    -0.594 OA
HETATM   21  O   UNL     1      44.099  44.139  31.025  1.00  0.00    -0.594 OA
ENDBRANCH  17  18
ENDBRANCH   3  17
BRANCH   4  22
HETATM   22  O   UNL     1      40.659  48.414  32.143  1.00  0.00    -0.380 OA
HETATM   23  H   UNL     1      39.959  48.811  32.703  1.00  0.00     0.211 HD
ENDBRANCH   4  22
BRANCH   2  24
HETATM   24  O   UNL     1      42.584  46.738  31.162  1.00  0.00    -0.380 OA
HETATM   25  H   UNL     1      43.352  47.320  30.921  1.00  0.00     0.211 HD
ENDBRANCH   2  24
TORSDOF 11
ENDMDL
MODEL 7
REMARK VINA RESULT:    -4.301      2.130      3.982
REMARK INTER + INTRA:          -7.767
REMARK INTER:                  -6.265
REMARK INTRA:                  -1.502
REMARK UNBOUND:                -1.329
REMARK  11 active torsions:
REMARK  status: ('A' for Active; 'I' for Inactive)
REMARK    1  A    between atoms: S_1  and  C_17 
REMARK    2  A    between atoms: O_3  and  C_16 
REMARK    3  A    between atoms: O_3  and  C_18 
REMARK    4  A    between atoms: O_4  and  C_12 
REMARK    5  A    between atoms: O_5  and  C_14 
REMARK    6  A    between atoms: O_6  and  C_15 
REMARK    7  A    between atoms: O_10  and  C_19 
REMARK    8  A    between atoms: O_11  and  C_20 
REMARK    9  A    between atoms: C_13  and  C_17 
REMARK   10  A    between atoms: C_18  and  C_19 
REMARK   11  A    between atoms: C_19  and  C_20 
ROOT
HETATM    1  O   UNL     1      42.789  46.003  34.645  1.00  0.00    -0.328 OA
HETATM    2  C   UNL     1      41.479  47.740  33.526  1.00  0.00     0.168 C 
HETATM    3  C   UNL     1      42.763  46.883  33.490  1.00  0.00     0.166 C 
HETATM    4  C   UNL     1      40.241  46.829  33.628  1.00  0.00     0.172 C 
HETATM    5  C   UNL     1      40.363  45.823  34.774  1.00  0.00     0.197 C 
HETATM    6  C   UNL     1      41.705  45.079  34.673  1.00  0.00     0.266 C 
ENDROOT
BRANCH   6   7
HETATM    7  O   UNL     1      41.707  44.234  33.514  1.00  0.00    -0.326 OA
BRANCH   7   8
HETATM    8  C   UNL     1      42.577  43.112  33.684  1.00  0.00     0.177 C 
BRANCH   8   9
HETATM    9  C   UNL     1      43.766  43.201  32.728  1.00  0.00     0.170 C 
BRANCH   9  10
HETATM   10  O   UNL     1      44.808  43.989  33.324  1.00  0.00    -0.380 OA
HETATM   11  H   UNL     1      44.727  44.857  32.875  1.00  0.00     0.211 HD
ENDBRANCH   9  10
BRANCH   9  12
HETATM   12  C   UNL     1      43.365  43.842  31.395  1.00  0.00     0.169 C 
BRANCH  12  13
HETATM   13  O   UNL     1      44.367  44.795  31.017  1.00  0.00    -0.380 OA
HETATM   14  H   UNL     1      44.798  44.382  30.241  1.00  0.00     0.211 HD
ENDBRANCH  12  13
ENDBRANCH   9  12
ENDBRANCH   8   9
ENDBRANCH   7   8
ENDBRANCH   6   7
BRANCH   5  15
HETATM   15  O   UNL     1      39.277  44.878  34.754  1.00  0.00    -0.378 OA
HETATM   16  H   UNL     1      39.487  44.253  34.034  1.00  0.00     0.211 HD
ENDBRANCH   5  15
BRANCH   3  17
HETATM   17  C   UNL     1      44.059  47.686  33.548  1.00  0.00     0.178 C 
BRANCH  17  18
HETATM   18  S   UNL     1      44.480  48.406  31.986  1.00  0.00     0.118 S 
HETATM   19  O   UNL     1      43.691  47.610  31.049  1.00  0.00    -0.594 OA
HETATM   20  O   UNL     1      45.924  48.210  31.890  1.00  0.00    -0.594 OA
HETATM   21  O   UNL     1      44.050  49.793  32.130  1.00  0.00    -0.594 OA
ENDBRANCH  17  18
ENDBRANCH   3  17
BRANCH   4  22
HETATM   22  O   UNL     1      39.078  47.661  33.803  1.00  0.00    -0.380 OA
HETATM   23  H   UNL     1      38.362  47.150  33.370  1.00  0.00     0.211 HD
ENDBRANCH   4  22
BRANCH   2  24
HETATM   24  O   UNL     1      41.232  48.567  32.385  1.00  0.00    -0.380 OA
HETATM   25  H   UNL     1      41.637  48.157  31.577  1.00  0.00     0.211 HD
ENDBRANCH   2  24
TORSDOF 11
ENDMDL
MODEL 8
REMARK VINA RESULT:    -4.248      3.006      5.230
REMARK INTER + INTRA:          -7.688
REMARK INTER:                  -5.952
REMARK INTRA:                  -1.736
REMARK UNBOUND:                -1.329
REMARK  11 active torsions:
REMARK  status: ('A' for Active; 'I' for Inactive)
REMARK    1  A    between atoms: S_1  and  C_17 
REMARK    2  A    between atoms: O_3  and  C_16 
REMARK    3  A    between atoms: O_3  and  C_18 
REMARK    4  A    between atoms: O_4  and  C_12 
REMARK    5  A    between atoms: O_5  and  C_14 
REMARK    6  A    between atoms: O_6  and  C_15 
REMARK    7  A    between atoms: O_10  and  C_19 
REMARK    8  A    between atoms: O_11  and  C_20 
REMARK    9  A    between atoms: C_13  and  C_17 
REMARK   10  A    between atoms: C_18  and  C_19 
REMARK   11  A    between atoms: C_19  and  C_20 
ROOT
HETATM    1  O   UNL     1      43.853  46.295  34.306  1.00  0.00    -0.328 OA
HETATM    2  C   UNL     1      42.697  47.797  32.758  1.00  0.00     0.168 C 
HETATM    3  C   UNL     1      42.635  47.062  34.115  1.00  0.00     0.166 C 
HETATM    4  C   UNL     1      43.976  48.652  32.682  1.00  0.00     0.172 C 
HETATM    5  C   UNL     1      45.229  47.842  33.021  1.00  0.00     0.197 C 
HETATM    6  C   UNL     1      45.025  47.103  34.355  1.00  0.00     0.266 C 
ENDROOT
BRANCH   6   7
HETATM    7  O   UNL     1      44.964  48.049  35.431  1.00  0.00    -0.326 OA
BRANCH   7   8
HETATM    8  C   UNL     1      45.543  47.521  36.628  1.00  0.00     0.177 C 
BRANCH   8   9
HETATM    9  C   UNL     1      44.514  47.495  37.758  1.00  0.00     0.170 C 
BRANCH   9  10
HETATM   10  O   UNL     1      43.431  46.619  37.406  1.00  0.00    -0.380 OA
HETATM   11  H   UNL     1      42.691  47.233  37.215  1.00  0.00     0.211 HD
ENDBRANCH   9  10
BRANCH   9  12
HETATM   12  C   UNL     1      43.948  48.892  38.032  1.00  0.00     0.169 C 
BRANCH  12  13
HETATM   13  O   UNL     1      42.957  49.194  37.042  1.00  0.00    -0.380 OA
HETATM   14  H   UNL     1      42.278  48.501  37.174  1.00  0.00     0.211 HD
ENDBRANCH  12  13
ENDBRANCH   9  12
ENDBRANCH   8   9
ENDBRANCH   7   8
ENDBRANCH   6   7
BRANCH   5  15
HETATM   15  O   UNL     1      46.390  48.689  33.104  1.00  0.00    -0.378 OA
HETATM   16  H   UNL     1      46.760  48.714  32.201  1.00  0.00     0.211 HD
ENDBRANCH   5  15
BRANCH   3  17
HETATM   17  C   UNL     1      41.489  46.063  34.238  1.00  0.00     0.178 C 
BRANCH  17  18
HETATM   18  S   UNL     1      40.193  46.645  35.297  1.00  0.00     0.118 S 
HETATM   19  O   UNL     1      39.322  47.357  34.366  1.00  0.00    -0.594 OA
HETATM   20  O   UNL     1      40.887  47.497  36.260  1.00  0.00    -0.594 OA
HETATM   21  O   UNL     1      39.634  45.415  35.847  1.00  0.00    -0.594 OA
ENDBRANCH  17  18
ENDBRANCH   3  17
BRANCH   4  22
HETATM   22  O   UNL     1      44.073  49.207  31.356  1.00  0.00    -0.380 OA
HETATM   23  H   UNL     1      43.141  49.252  31.056  1.00  0.00     0.211 HD
ENDBRANCH   4  22
BRANCH   2  24
HETATM   24  O   UNL     1      41.630  48.708  32.477  1.00  0.00    -0.380 OA
HETATM   25  H   UNL     1      40.944  48.260  31.918  1.00  0.00     0.211 HD
ENDBRANCH   2  24
TORSDOF 11
ENDMDL
MODEL 9
REMARK VINA RESULT:    -4.088      2.747      4.494
REMARK INTER + INTRA:          -7.449
REMARK INTER:                  -5.838
REMARK INTRA:                  -1.611
REMARK UNBOUND:                -1.329
REMARK  11 active torsions:
REMARK  status: ('A' for Active; 'I' for Inactive)
REMARK    1  A    between atoms: S_1  and  C_17 
REMARK    2  A    between atoms: O_3  and  C_16 
REMARK    3  A    between atoms: O_3  and  C_18 
REMARK    4  A    between atoms: O_4  and  C_12 
REMARK    5  A    between atoms: O_5  and  C_14 
REMARK    6  A    between atoms: O_6  and  C_15 
REMARK    7  A    between atoms: O_10  and  C_19 
REMARK    8  A    between atoms: O_11  and  C_20 
REMARK    9  A    between atoms: C_13  and  C_17 
REMARK   10  A    between atoms: C_18  and  C_19 
REMARK   11  A    between atoms: C_19  and  C_20 
ROOT
HETATM    1  O   UNL     1      42.807  45.245  33.462  1.00  0.00    -0.328 OA
HETATM    2  C   UNL     1      40.389  44.893  33.346  1.00  0.00     0.168 C 
HETATM    3  C   UNL     1      41.682  44.636  34.149  1.00  0.00     0.166 C 
HETATM    4  C   UNL     1      40.212  46.404  33.104  1.00  0.00     0.172 C 
HETATM    5  C   UNL     1      41.467  47.039  32.503  1.00  0.00     0.197 C 
HETATM    6  C   UNL     1      42.697  46.660  33.346  1.00  0.00     0.266 C 
ENDROOT
BRANCH   6   7
HETATM    7  O   UNL     1      42.615  47.287  34.633  1.00  0.00    -0.326 OA
BRANCH   7   8
HETATM    8  C   UNL     1      43.896  47.745  35.076  1.00  0.00     0.177 C 
BRANCH   8   9
HETATM    9  C   UNL     1      44.350  46.968  36.311  1.00  0.00     0.170 C 
BRANCH   9  10
HETATM   10  O   UNL     1      44.630  45.606  35.951  1.00  0.00    -0.380 OA
HETATM   11  H   UNL     1      43.781  45.145  36.113  1.00  0.00     0.211 HD
ENDBRANCH   9  10
BRANCH   9  12
HETATM   12  C   UNL     1      43.275  46.977  37.403  1.00  0.00     0.169 C 
BRANCH  12  13
HETATM   13  O   UNL     1      42.458  45.807  37.261  1.00  0.00    -0.380 OA
HETATM   14  H   UNL     1      43.093  45.068  37.362  1.00  0.00     0.211 HD
ENDBRANCH  12  13
ENDBRANCH   9  12
ENDBRANCH   8   9
ENDBRANCH   7   8
ENDBRANCH   6   7
BRANCH   5  15
HETATM   15  O   UNL     1      41.344  48.472  32.434  1.00  0.00    -0.378 OA
HETATM   16  H   UNL     1      42.158  48.824  32.842  1.00  0.00     0.211 HD
ENDBRANCH   5  15
BRANCH   3  17
HETATM   17  C   UNL     1      42.040  43.162  34.313  1.00  0.00     0.178 C 
BRANCH  17  18
HETATM   18  S   UNL     1      41.174  42.399  35.656  1.00  0.00     0.118 S 
HETATM   19  O   UNL     1      42.202  41.548  36.250  1.00  0.00    -0.594 OA
HETATM   20  O   UNL     1      40.085  41.677  35.003  1.00  0.00    -0.594 OA
HETATM   21  O   UNL     1      40.764  43.533  36.476  1.00  0.00    -0.594 OA
ENDBRANCH  17  18
ENDBRANCH   3  17
BRANCH   4  22
HETATM   22  O   UNL     1      39.079  46.595  32.234  1.00  0.00    -0.380 OA
HETATM   23  H   UNL     1      39.040  47.568  32.117  1.00  0.00     0.211 HD
ENDBRANCH   4  22
BRANCH   2  24
HETATM   24  O   UNL     1      39.165  44.474  33.958  1.00  0.00    -0.380 OA
HETATM   25  H   UNL     1      39.357  43.996  34.805  1.00  0.00     0.211 HD
ENDBRANCH   2  24
TORSDOF 11
ENDMDL
MODEL 10
REMARK VINA RESULT:    -4.056      2.409      5.564
REMARK INTER + INTRA:          -7.401
REMARK INTER:                  -5.465
REMARK INTRA:                  -1.936
REMARK UNBOUND:                -1.329
REMARK  11 active torsions:
REMARK  status: ('A' for Active; 'I' for Inactive)
REMARK    1  A    between atoms: S_1  and  C_17 
REMARK    2  A    between atoms: O_3  and  C_16 
REMARK    3  A    between atoms: O_3  and  C_18 
REMARK    4  A    between atoms: O_4  and  C_12 
REMARK    5  A    between atoms: O_5  and  C_14 
REMARK    6  A    between atoms: O_6  and  C_15 
REMARK    7  A    between atoms: O_10  and  C_19 
REMARK    8  A    between atoms: O_11  and  C_20 
REMARK    9  A    between atoms: C_13  and  C_17 
REMARK   10  A    between atoms: C_18  and  C_19 
REMARK   11  A    between atoms: C_19  and  C_20 
ROOT
HETATM    1  O   UNL     1      42.989  45.224  34.944  1.00  0.00    -0.328 OA
HETATM    2  C   UNL     1      42.641  42.865  34.398  1.00  0.00     0.168 C 
HETATM    3  C   UNL     1      42.046  44.125  35.062  1.00  0.00     0.166 C 
HETATM    4  C   UNL     1      43.041  43.175  32.943  1.00  0.00     0.172 C 
HETATM    5  C   UNL     1      43.925  44.419  32.844  1.00  0.00     0.197 C 
HETATM    6  C   UNL     1      43.264  45.588  33.595  1.00  0.00     0.266 C 
ENDROOT
BRANCH   6   7
HETATM    7  O   UNL     1      42.073  45.996  32.909  1.00  0.00    -0.326 OA
BRANCH   7   8
HETATM    8  C   UNL     1      41.861  47.406  33.019  1.00  0.00     0.177 C 
BRANCH   8   9
HETATM    9  C   UNL     1      40.579  47.700  33.798  1.00  0.00     0.170 C 
BRANCH   9  10
HETATM   10  O   UNL     1      40.758  47.338  35.177  1.00  0.00    -0.380 OA
HETATM   11  H   UNL     1      41.703  47.535  35.347  1.00  0.00     0.211 HD
ENDBRANCH   9  10
BRANCH   9  12
HETATM   12  C   UNL     1      39.389  46.917  33.234  1.00  0.00     0.169 C 
BRANCH  12  13
HETATM   13  O   UNL     1      39.319  45.643  33.887  1.00  0.00    -0.380 OA
HETATM   14  H   UNL     1      40.191  45.238  33.700  1.00  0.00     0.211 HD
ENDBRANCH  12  13
ENDBRANCH   9  12
ENDBRANCH   8   9
ENDBRANCH   7   8
ENDBRANCH   6   7
BRANCH   5  15
HETATM   15  O   UNL     1      44.154  44.788  31.471  1.00  0.00    -0.378 OA
HETATM   16  H   UNL     1      44.924  44.261  31.184  1.00  0.00     0.211 HD
ENDBRANCH   5  15
BRANCH   3  17
HETATM   17  C   UNL     1      41.760  43.978  36.553  1.00  0.00     0.178 C 
BRANCH  17  18
HETATM   18  S   UNL     1      40.026  43.966  36.912  1.00  0.00     0.118 S 
HETATM   19  O   UNL     1      39.702  45.390  36.948  1.00  0.00    -0.594 OA
HETATM   20  O   UNL     1      39.942  43.286  38.202  1.00  0.00    -0.594 OA
HETATM   21  O   UNL     1      39.456  43.233  35.787  1.00  0.00    -0.594 OA
ENDBRANCH  17  18
ENDBRANCH   3  17
BRANCH   4  22
HETATM   22  O   UNL     1      43.720  42.025  32.403  1.00  0.00    -0.380 OA
HETATM   23  H   UNL     1      44.503  41.925  32.985  1.00  0.00     0.211 HD
ENDBRANCH   4  22
BRANCH   2  24
HETATM   24  O   UNL     1      41.780  41.725  34.307  1.00  0.00    -0.380 OA
HETATM   25  H   UNL     1      42.295  40.898  34.494  1.00  0.00     0.211 HD
ENDBRANCH   2  24
TORSDOF 11
ENDMDL
