MODEL 1
REMARK VINA RESULT:    -4.868      0.000      0.000
REMARK INTER + INTRA:          -8.591
REMARK INTER:                  -7.287
REMARK INTRA:                  -1.305
REMARK UNBOUND:                -1.305
REMARK  11 active torsions:
REMARK  status: ('A' for Active; 'I' for Inactive)
REMARK    1  A    between atoms: S_1  and  C_17 
REMARK    2  A    between atoms: O_3  and  C_16 
REMARK    3  A    between atoms: O_3  and  C_18 
REMARK    4  A    between atoms: O_4  and  C_12 
REMARK    5  A    between atoms: O_5  and  C_14 
REMARK    6  A    between atoms: O_6  and  C_15 
REMARK    7  A    between atoms: O_10  and  C_19 
REMARK    8  A    between atoms: O_11  and  C_20 
REMARK    9  A    between atoms: C_13  and  C_17 
REMARK   10  A    between atoms: C_18  and  C_19 
REMARK   11  A    between atoms: C_19  and  C_20 
ROOT
HETATM    1  O   UNL     1      42.717  46.243  34.807  1.00  0.00    -0.328 OA
HETATM    2  C   UNL     1      41.438  47.076  32.894  1.00  0.00     0.168 C 
HETATM    3  C   UNL     1      42.490  46.058  33.385  1.00  0.00     0.166 C 
HETATM    4  C   UNL     1      40.156  46.955  33.739  1.00  0.00     0.172 C 
HETATM    5  C   UNL     1      40.448  47.019  35.239  1.00  0.00     0.197 C 
HETATM    6  C   UNL     1      41.555  46.013  35.597  1.00  0.00     0.266 C 
ENDROOT
BRANCH   6   7
HETATM    7  O   UNL     1      41.066  44.675  35.432  1.00  0.00    -0.326 OA
BRANCH   7   8
HETATM    8  C   UNL     1      41.306  43.881  36.597  1.00  0.00     0.177 C 
BRANCH   8   9
HETATM    9  C   UNL     1      40.013  43.220  37.075  1.00  0.00     0.170 C 
BRANCH   9  10
HETATM   10  O   UNL     1      38.949  43.519  36.158  1.00  0.00    -0.380 OA
HETATM   11  H   UNL     1      39.378  44.087  35.484  1.00  0.00     0.211 HD
ENDBRANCH   9  10
BRANCH   9  12
HETATM   12  C   UNL     1      39.614  43.713  38.470  1.00  0.00     0.169 C 
BRANCH  12  13
HETATM   13  O   UNL     1      38.869  44.931  38.336  1.00  0.00    -0.380 OA
HETATM   14  H   UNL     1      38.620  45.152  39.257  1.00  0.00     0.211 HD
ENDBRANCH  12  13
ENDBRANCH   9  12
ENDBRANCH   8   9
ENDBRANCH   7   8
ENDBRANCH   6   7
BRANCH   5  15
HETATM   15  O   UNL     1      39.266  46.743  36.012  1.00  0.00    -0.378 OA
HETATM   16  H   UNL     1      39.395  47.208  36.861  1.00  0.00     0.211 HD
ENDBRANCH   5  15
BRANCH   3  17
HETATM   17  C   UNL     1      43.858  46.195  32.722  1.00  0.00     0.178 C 
BRANCH  17  18
HETATM   18  S   UNL     1      43.971  45.288  31.206  1.00  0.00     0.118 S 
HETATM   19  O   UNL     1      42.905  44.299  31.350  1.00  0.00    -0.594 OA
HETATM   20  O   UNL     1      45.324  44.737  31.230  1.00  0.00    -0.594 OA
HETATM   21  O   UNL     1      43.733  46.306  30.189  1.00  0.00    -0.594 OA
ENDBRANCH  17  18
ENDBRANCH   3  17
BRANCH   4  22
HETATM   22  O   UNL     1      39.255  48.010  33.351  1.00  0.00    -0.380 OA
HETATM   23  H   UNL     1      39.720  48.448  32.607  1.00  0.00     0.211 HD
ENDBRANCH   4  22
BRANCH   2  24
HETATM   24  O   UNL     1      41.000  46.938  31.539  1.00  0.00    -0.380 OA
HETATM   25  H   UNL     1      41.682  46.446  31.013  1.00  0.00     0.211 HD
ENDBRANCH   2  24
TORSDOF 11
ENDMDL
MODEL 2
REMARK VINA RESULT:    -4.777      1.774      2.270
REMARK INTER + INTRA:          -8.456
REMARK INTER:                  -7.407
REMARK INTRA:                  -1.049
REMARK UNBOUND:                -1.305
REMARK  11 active torsions:
REMARK  status: ('A' for Active; 'I' for Inactive)
REMARK    1  A    between atoms: S_1  and  C_17 
REMARK    2  A    between atoms: O_3  and  C_16 
REMARK    3  A    between atoms: O_3  and  C_18 
REMARK    4  A    between atoms: O_4  and  C_12 
REMARK    5  A    between atoms: O_5  and  C_14 
REMARK    6  A    between atoms: O_6  and  C_15 
REMARK    7  A    between atoms: O_10  and  C_19 
REMARK    8  A    between atoms: O_11  and  C_20 
REMARK    9  A    between atoms: C_13  and  C_17 
REMARK   10  A    between atoms: C_18  and  C_19 
REMARK   11  A    between atoms: C_19  and  C_20 
ROOT
HETATM    1  O   UNL     1      42.505  45.300  34.225  1.00  0.00    -0.328 OA
HETATM    2  C   UNL     1      42.128  46.457  32.103  1.00  0.00     0.168 C 
HETATM    3  C   UNL     1      42.522  45.128  32.784  1.00  0.00     0.166 C 
HETATM    4  C   UNL     1      40.771  46.943  32.645  1.00  0.00     0.172 C 
HETATM    5  C   UNL     1      40.744  46.982  34.174  1.00  0.00     0.197 C 
HETATM    6  C   UNL     1      41.218  45.632  34.738  1.00  0.00     0.266 C 
ENDROOT
BRANCH   6   7
HETATM    7  O   UNL     1      40.255  44.614  34.435  1.00  0.00    -0.326 OA
BRANCH   7   8
HETATM    8  C   UNL     1      39.895  43.869  35.602  1.00  0.00     0.177 C 
BRANCH   8   9
HETATM    9  C   UNL     1      40.953  42.811  35.914  1.00  0.00     0.170 C 
BRANCH   9  10
HETATM   10  O   UNL     1      41.406  42.205  34.693  1.00  0.00    -0.380 OA
HETATM   11  H   UNL     1      42.304  41.881  34.915  1.00  0.00     0.211 HD
ENDBRANCH   9  10
BRANCH   9  12
HETATM   12  C   UNL     1      40.397  41.716  36.829  1.00  0.00     0.169 C 
BRANCH  12  13
HETATM   13  O   UNL     1      39.317  41.053  36.159  1.00  0.00    -0.380 OA
HETATM   14  H   UNL     1      38.589  41.078  36.813  1.00  0.00     0.211 HD
ENDBRANCH  12  13
ENDBRANCH   9  12
ENDBRANCH   8   9
ENDBRANCH   7   8
ENDBRANCH   6   7
BRANCH   5  15
HETATM   15  O   UNL     1      39.424  47.281  34.664  1.00  0.00    -0.378 OA
HETATM   16  H   UNL     1      39.145  46.489  35.163  1.00  0.00     0.211 HD
ENDBRANCH   5  15
BRANCH   3  17
HETATM   17  C   UNL     1      43.924  44.634  32.439  1.00  0.00     0.178 C 
BRANCH  17  18
HETATM   18  S   UNL     1      43.900  43.203  31.395  1.00  0.00     0.118 S 
HETATM   19  O   UNL     1      45.291  43.110  30.958  1.00  0.00    -0.594 OA
HETATM   20  O   UNL     1      42.951  43.556  30.342  1.00  0.00    -0.594 OA
HETATM   21  O   UNL     1      43.464  42.141  32.294  1.00  0.00    -0.594 OA
ENDBRANCH  17  18
ENDBRANCH   3  17
BRANCH   4  22
HETATM   22  O   UNL     1      40.504  48.248  32.097  1.00  0.00    -0.380 OA
HETATM   23  H   UNL     1      41.195  48.355  31.410  1.00  0.00     0.211 HD
ENDBRANCH   4  22
BRANCH   2  24
HETATM   24  O   UNL     1      41.965  46.421  30.682  1.00  0.00    -0.380 OA
HETATM   25  H   UNL     1      41.199  46.993  30.417  1.00  0.00     0.211 HD
ENDBRANCH   2  24
TORSDOF 11
ENDMDL
MODEL 3
REMARK VINA RESULT:    -4.662      2.397      5.710
REMARK INTER + INTRA:          -8.284
REMARK INTER:                  -6.888
REMARK INTRA:                  -1.396
REMARK UNBOUND:                -1.305
REMARK  11 active torsions:
REMARK  status: ('A' for Active; 'I' for Inactive)
REMARK    1  A    between atoms: S_1  and  C_17 
REMARK    2  A    between atoms: O_3  and  C_16 
REMARK    3  A    between atoms: O_3  and  C_18 
REMARK    4  A    between atoms: O_4  and  C_12 
REMARK    5  A    between atoms: O_5  and  C_14 
REMARK    6  A    between atoms: O_6  and  C_15 
REMARK    7  A    between atoms: O_10  and  C_19 
REMARK    8  A    between atoms: O_11  and  C_20 
REMARK    9  A    between atoms: C_13  and  C_17 
REMARK   10  A    between atoms: C_18  and  C_19 
REMARK   11  A    between atoms: C_19  and  C_20 
ROOT
HETATM    1  O   UNL     1      41.271  44.714  33.176  1.00  0.00    -0.328 OA
HETATM    2  C   UNL     1      39.979  46.182  34.646  1.00  0.00     0.168 C 
HETATM    3  C   UNL     1      40.677  44.813  34.497  1.00  0.00     0.166 C 
HETATM    4  C   UNL     1      40.974  47.316  34.336  1.00  0.00     0.172 C 
HETATM    5  C   UNL     1      41.681  47.108  32.996  1.00  0.00     0.197 C 
HETATM    6  C   UNL     1      42.278  45.692  32.937  1.00  0.00     0.266 C 
ENDROOT
BRANCH   6   7
HETATM    7  O   UNL     1      43.353  45.578  33.878  1.00  0.00    -0.326 OA
BRANCH   7   8
HETATM    8  C   UNL     1      44.453  44.843  33.333  1.00  0.00     0.177 C 
BRANCH   8   9
HETATM    9  C   UNL     1      44.662  45.198  31.861  1.00  0.00     0.170 C 
BRANCH   9  10
HETATM   10  O   UNL     1      45.077  44.031  31.135  1.00  0.00    -0.380 OA
HETATM   11  H   UNL     1      46.015  44.215  30.919  1.00  0.00     0.211 HD
ENDBRANCH   9  10
BRANCH   9  12
HETATM   12  C   UNL     1      45.727  46.287  31.694  1.00  0.00     0.169 C 
BRANCH  12  13
HETATM   13  O   UNL     1      45.460  47.344  32.624  1.00  0.00    -0.380 OA
HETATM   14  H   UNL     1      44.561  47.141  32.954  1.00  0.00     0.211 HD
ENDBRANCH  12  13
ENDBRANCH   9  12
ENDBRANCH   8   9
ENDBRANCH   7   8
ENDBRANCH   6   7
BRANCH   5  15
HETATM   15  O   UNL     1      42.719  48.085  32.798  1.00  0.00    -0.378 OA
HETATM   16  H   UNL     1      43.550  47.640  33.053  1.00  0.00     0.211 HD
ENDBRANCH   5  15
BRANCH   3  17
HETATM   17  C   UNL     1      39.745  43.612  34.628  1.00  0.00     0.178 C 
BRANCH  17  18
HETATM   18  S   UNL     1      39.847  42.845  36.221  1.00  0.00     0.118 S 
HETATM   19  O   UNL     1      41.243  43.065  36.588  1.00  0.00    -0.594 OA
HETATM   20  O   UNL     1      39.495  41.452  35.960  1.00  0.00    -0.594 OA
HETATM   21  O   UNL     1      38.876  43.592  37.014  1.00  0.00    -0.594 OA
ENDBRANCH  17  18
ENDBRANCH   3  17
BRANCH   4  22
HETATM   22  O   UNL     1      40.256  48.565  34.344  1.00  0.00    -0.380 OA
HETATM   23  H   UNL     1      40.496  48.975  33.486  1.00  0.00     0.211 HD
ENDBRANCH   4  22
BRANCH   2  24
HETATM   24  O   UNL     1      39.457  46.495  35.941  1.00  0.00    -0.380 OA
HETATM   25  H   UNL     1      39.175  47.445  35.970  1.00  0.00     0.211 HD
ENDBRANCH   2  24
TORSDOF 11
ENDMDL
MODEL 4
REMARK VINA RESULT:    -4.586      2.499      5.852
REMARK INTER + INTRA:          -8.169
REMARK INTER:                  -6.774
REMARK INTRA:                  -1.396
REMARK UNBOUND:                -1.305
REMARK  11 active torsions:
REMARK  status: ('A' for Active; 'I' for Inactive)
REMARK    1  A    between atoms: S_1  and  C_17 
REMARK    2  A    between atoms: O_3  and  C_16 
REMARK    3  A    between atoms: O_3  and  C_18 
REMARK    4  A    between atoms: O_4  and  C_12 
REMARK    5  A    between atoms: O_5  and  C_14 
REMARK    6  A    between atoms: O_6  and  C_15 
REMARK    7  A    between atoms: O_10  and  C_19 
REMARK    8  A    between atoms: O_11  and  C_20 
REMARK    9  A    between atoms: C_13  and  C_17 
REMARK   10  A    between atoms: C_18  and  C_19 
REMARK   11  A    between atoms: C_19  and  C_20 
ROOT
HETATM    1  O   UNL     1      42.374  45.293  33.451  1.00  0.00    -0.328 OA
HETATM    2  C   UNL     1      40.225  45.841  34.483  1.00  0.00     0.168 C 
HETATM    3  C   UNL     1      41.629  45.236  34.696  1.00  0.00     0.166 C 
HETATM    4  C   UNL     1      40.348  47.265  33.908  1.00  0.00     0.172 C 
HETATM    5  C   UNL     1      41.250  47.310  32.674  1.00  0.00     0.197 C 
HETATM    6  C   UNL     1      42.590  46.621  32.984  1.00  0.00     0.266 C 
ENDROOT
BRANCH   6   7
HETATM    7  O   UNL     1      43.327  47.398  33.937  1.00  0.00    -0.326 OA
BRANCH   7   8
HETATM    8  C   UNL     1      44.617  47.759  33.435  1.00  0.00     0.177 C 
BRANCH   8   9
HETATM    9  C   UNL     1      44.761  49.279  33.359  1.00  0.00     0.170 C 
BRANCH   9  10
HETATM   10  O   UNL     1      43.563  49.903  33.845  1.00  0.00    -0.380 OA
HETATM   11  H   UNL     1      43.702  49.946  34.815  1.00  0.00     0.211 HD
ENDBRANCH   9  10
BRANCH   9  12
HETATM   12  C   UNL     1      45.012  49.746  31.922  1.00  0.00     0.169 C 
BRANCH  12  13
HETATM   13  O   UNL     1      44.331  48.863  31.021  1.00  0.00    -0.380 OA
HETATM   14  H   UNL     1      43.749  48.338  31.606  1.00  0.00     0.211 HD
ENDBRANCH  12  13
ENDBRANCH   9  12
ENDBRANCH   8   9
ENDBRANCH   7   8
ENDBRANCH   6   7
BRANCH   5  15
HETATM   15  O   UNL     1      41.483  48.665  32.248  1.00  0.00    -0.378 OA
HETATM   16  H   UNL     1      40.687  48.922  31.745  1.00  0.00     0.211 HD
ENDBRANCH   5  15
BRANCH   3  17
HETATM   17  C   UNL     1      41.627  43.769  35.115  1.00  0.00     0.178 C 
BRANCH  17  18
HETATM   18  S   UNL     1      41.370  43.562  36.855  1.00  0.00     0.118 S 
HETATM   19  O   UNL     1      41.772  44.860  37.390  1.00  0.00    -0.594 OA
HETATM   20  O   UNL     1      42.256  42.454  37.208  1.00  0.00    -0.594 OA
HETATM   21  O   UNL     1      39.944  43.270  36.949  1.00  0.00    -0.594 OA
ENDBRANCH  17  18
ENDBRANCH   3  17
BRANCH   4  22
HETATM   22  O   UNL     1      39.026  47.742  33.590  1.00  0.00    -0.380 OA
HETATM   23  H   UNL     1      39.167  48.689  33.380  1.00  0.00     0.211 HD
ENDBRANCH   4  22
BRANCH   2  24
HETATM   24  O   UNL     1      39.410  45.986  35.650  1.00  0.00    -0.380 OA
HETATM   25  H   UNL     1      38.729  45.264  35.678  1.00  0.00     0.211 HD
ENDBRANCH   2  24
TORSDOF 11
ENDMDL
MODEL 5
REMARK VINA RESULT:    -4.562      2.574      4.888
REMARK INTER + INTRA:          -8.133
REMARK INTER:                  -6.386
REMARK INTRA:                  -1.748
REMARK UNBOUND:                -1.305
REMARK  11 active torsions:
REMARK  status: ('A' for Active; 'I' for Inactive)
REMARK    1  A    between atoms: S_1  and  C_17 
REMARK    2  A    between atoms: O_3  and  C_16 
REMARK    3  A    between atoms: O_3  and  C_18 
REMARK    4  A    between atoms: O_4  and  C_12 
REMARK    5  A    between atoms: O_5  and  C_14 
REMARK    6  A    between atoms: O_6  and  C_15 
REMARK    7  A    between atoms: O_10  and  C_19 
REMARK    8  A    between atoms: O_11  and  C_20 
REMARK    9  A    between atoms: C_13  and  C_17 
REMARK   10  A    between atoms: C_18  and  C_19 
REMARK   11  A    between atoms: C_19  and  C_20 
ROOT
HETATM    1  O   UNL     1      41.279  44.659  33.236  1.00  0.00    -0.328 OA
HETATM    2  C   UNL     1      40.047  46.188  34.696  1.00  0.00     0.168 C 
HETATM    3  C   UNL     1      40.689  44.791  34.556  1.00  0.00     0.166 C 
HETATM    4  C   UNL     1      41.089  47.279  34.380  1.00  0.00     0.172 C 
HETATM    5  C   UNL     1      41.788  47.034  33.042  1.00  0.00     0.197 C 
HETATM    6  C   UNL     1      42.326  45.594  32.992  1.00  0.00     0.266 C 
ENDROOT
BRANCH   6   7
HETATM    7  O   UNL     1      43.395  45.441  33.936  1.00  0.00    -0.326 OA
BRANCH   7   8
HETATM    8  C   UNL     1      44.401  44.548  33.449  1.00  0.00     0.177 C 
BRANCH   8   9
HETATM    9  C   UNL     1      44.532  43.332  34.367  1.00  0.00     0.170 C 
BRANCH   9  10
HETATM   10  O   UNL     1      43.291  42.609  34.393  1.00  0.00    -0.380 OA
HETATM   11  H   UNL     1      43.562  41.679  34.244  1.00  0.00     0.211 HD
ENDBRANCH   9  10
BRANCH   9  12
HETATM   12  C   UNL     1      44.890  43.747  35.797  1.00  0.00     0.169 C 
BRANCH  12  13
HETATM   13  O   UNL     1      43.731  44.315  36.421  1.00  0.00    -0.380 OA
HETATM   14  H   UNL     1      43.345  43.566  36.919  1.00  0.00     0.211 HD
ENDBRANCH  12  13
ENDBRANCH   9  12
ENDBRANCH   8   9
ENDBRANCH   7   8
ENDBRANCH   6   7
BRANCH   5  15
HETATM   15  O   UNL     1      42.867  47.966  32.840  1.00  0.00    -0.378 OA
HETATM   16  H   UNL     1      43.561  47.465  32.371  1.00  0.00     0.211 HD
ENDBRANCH   5  15
BRANCH   3  17
HETATM   17  C   UNL     1      39.708  43.631  34.693  1.00  0.00     0.178 C 
BRANCH  17  18
HETATM   18  S   UNL     1      39.856  42.797  36.249  1.00  0.00     0.118 S 
HETATM   19  O   UNL     1      39.384  41.452  35.931  1.00  0.00    -0.594 OA
HETATM   20  O   UNL     1      38.980  43.559  37.136  1.00  0.00    -0.594 OA
HETATM   21  O   UNL     1      41.280  42.897  36.547  1.00  0.00    -0.594 OA
ENDBRANCH  17  18
ENDBRANCH   3  17
BRANCH   4  22
HETATM   22  O   UNL     1      40.423  48.556  34.380  1.00  0.00    -0.380 OA
HETATM   23  H   UNL     1      41.140  49.190  34.165  1.00  0.00     0.211 HD
ENDBRANCH   4  22
BRANCH   2  24
HETATM   24  O   UNL     1      39.538  46.531  35.989  1.00  0.00    -0.380 OA
HETATM   25  H   UNL     1      38.610  46.871  35.906  1.00  0.00     0.211 HD
ENDBRANCH   2  24
TORSDOF 11
ENDMDL
MODEL 6
REMARK VINA RESULT:    -4.528      3.250      6.444
REMARK INTER + INTRA:          -8.082
REMARK INTER:                  -6.660
REMARK INTRA:                  -1.422
REMARK UNBOUND:                -1.305
REMARK  11 active torsions:
REMARK  status: ('A' for Active; 'I' for Inactive)
REMARK    1  A    between atoms: S_1  and  C_17 
REMARK    2  A    between atoms: O_3  and  C_16 
REMARK    3  A    between atoms: O_3  and  C_18 
REMARK    4  A    between atoms: O_4  and  C_12 
REMARK    5  A    between atoms: O_5  and  C_14 
REMARK    6  A    between atoms: O_6  and  C_15 
REMARK    7  A    between atoms: O_10  and  C_19 
REMARK    8  A    between atoms: O_11  and  C_20 
REMARK    9  A    between atoms: C_13  and  C_17 
REMARK   10  A    between atoms: C_18  and  C_19 
REMARK   11  A    between atoms: C_19  and  C_20 
ROOT
HETATM    1  O   UNL     1      42.526  43.971  36.577  1.00  0.00    -0.328 OA
HETATM    2  C   UNL     1      40.985  42.135  37.065  1.00  0.00     0.168 C 
HETATM    3  C   UNL     1      41.818  43.296  37.650  1.00  0.00     0.166 C 
HETATM    4  C   UNL     1      40.056  42.662  35.955  1.00  0.00     0.172 C 
HETATM    5  C   UNL     1      40.816  43.484  34.913  1.00  0.00     0.197 C 
HETATM    6  C   UNL     1      41.659  44.562  35.614  1.00  0.00     0.266 C 
ENDROOT
BRANCH   6   7
HETATM    7  O   UNL     1      40.798  45.539  36.214  1.00  0.00    -0.326 OA
BRANCH   7   8
HETATM    8  C   UNL     1      41.238  46.871  35.932  1.00  0.00     0.177 C 
BRANCH   8   9
HETATM    9  C   UNL     1      40.339  47.526  34.884  1.00  0.00     0.170 C 
BRANCH   9  10
HETATM   10  O   UNL     1      39.085  46.829  34.819  1.00  0.00    -0.380 OA
HETATM   11  H   UNL     1      38.468  47.418  35.304  1.00  0.00     0.211 HD
ENDBRANCH   9  10
BRANCH   9  12
HETATM   12  C   UNL     1      40.988  47.502  33.496  1.00  0.00     0.169 C 
BRANCH  12  13
HETATM   13  O   UNL     1      40.228  46.637  32.643  1.00  0.00    -0.380 OA
HETATM   14  H   UNL     1      40.323  45.757  33.062  1.00  0.00     0.211 HD
ENDBRANCH  12  13
ENDBRANCH   9  12
ENDBRANCH   8   9
ENDBRANCH   7   8
ENDBRANCH   6   7
BRANCH   5  15
HETATM   15  O   UNL     1      39.913  44.101  33.976  1.00  0.00    -0.378 OA
HETATM   16  H   UNL     1      39.478  44.822  34.469  1.00  0.00     0.211 HD
ENDBRANCH   5  15
BRANCH   3  17
HETATM   17  C   UNL     1      42.886  42.865  38.650  1.00  0.00     0.178 C 
BRANCH  17  18
HETATM   18  S   UNL     1      42.230  42.606  40.274  1.00  0.00     0.118 S 
HETATM   19  O   UNL     1      41.035  43.446  40.268  1.00  0.00    -0.594 OA
HETATM   20  O   UNL     1      43.297  43.067  41.158  1.00  0.00    -0.594 OA
HETATM   21  O   UNL     1      41.974  41.171  40.306  1.00  0.00    -0.594 OA
ENDBRANCH  17  18
ENDBRANCH   3  17
BRANCH   4  22
HETATM   22  O   UNL     1      39.402  41.536  35.337  1.00  0.00    -0.380 OA
HETATM   23  H   UNL     1      39.434  41.748  34.380  1.00  0.00     0.211 HD
ENDBRANCH   4  22
BRANCH   2  24
HETATM   24  O   UNL     1      40.118  41.451  37.975  1.00  0.00    -0.380 OA
HETATM   25  H   UNL     1      40.320  41.727  38.906  1.00  0.00     0.211 HD
ENDBRANCH   2  24
TORSDOF 11
ENDMDL
MODEL 7
REMARK VINA RESULT:    -4.450      2.522      5.573
REMARK INTER + INTRA:          -7.965
REMARK INTER:                  -6.279
REMARK INTRA:                  -1.686
REMARK UNBOUND:                -1.305
REMARK  11 active torsions:
REMARK  status: ('A' for Active; 'I' for Inactive)
REMARK    1  A    between atoms: S_1  and  C_17 
REMARK    2  A    between atoms: O_3  and  C_16 
REMARK    3  A    between atoms: O_3  and  C_18 
REMARK    4  A    between atoms: O_4  and  C_12 
REMARK    5  A    between atoms: O_5  and  C_14 
REMARK    6  A    between atoms: O_6  and  C_15 
REMARK    7  A    between atoms: O_10  and  C_19 
REMARK    8  A    between atoms: O_11  and  C_20 
REMARK    9  A    between atoms: C_13  and  C_17 
REMARK   10  A    between atoms: C_18  and  C_19 
REMARK   11  A    between atoms: C_19  and  C_20 
ROOT
HETATM    1  O   UNL     1      42.496  44.807  35.783  1.00  0.00    -0.328 OA
HETATM    2  C   UNL     1      42.739  42.668  34.621  1.00  0.00     0.168 C 
HETATM    3  C   UNL     1      41.789  43.597  35.406  1.00  0.00     0.166 C 
HETATM    4  C   UNL     1      43.340  43.424  33.420  1.00  0.00     0.172 C 
HETATM    5  C   UNL     1      43.959  44.760  33.835  1.00  0.00     0.197 C 
HETATM    6  C   UNL     1      42.947  45.567  34.665  1.00  0.00     0.266 C 
ENDROOT
BRANCH   6   7
HETATM    7  O   UNL     1      41.852  45.976  33.834  1.00  0.00    -0.326 OA
BRANCH   7   8
HETATM    8  C   UNL     1      41.319  47.237  34.250  1.00  0.00     0.177 C 
BRANCH   8   9
HETATM    9  C   UNL     1      39.821  47.122  34.533  1.00  0.00     0.170 C 
BRANCH   9  10
HETATM   10  O   UNL     1      39.601  46.192  35.605  1.00  0.00    -0.380 OA
HETATM   11  H   UNL     1      39.775  45.320  35.193  1.00  0.00     0.211 HD
ENDBRANCH   9  10
BRANCH   9  12
HETATM   12  C   UNL     1      39.053  46.641  33.298  1.00  0.00     0.169 C 
BRANCH  12  13
HETATM   13  O   UNL     1      39.191  45.218  33.190  1.00  0.00    -0.380 OA
HETATM   14  H   UNL     1      40.054  45.102  32.742  1.00  0.00     0.211 HD
ENDBRANCH  12  13
ENDBRANCH   9  12
ENDBRANCH   8   9
ENDBRANCH   7   8
ENDBRANCH   6   7
BRANCH   5  15
HETATM   15  O   UNL     1      44.368  45.524  32.686  1.00  0.00    -0.378 OA
HETATM   16  H   UNL     1      45.341  45.587  32.746  1.00  0.00     0.211 HD
ENDBRANCH   5  15
BRANCH   3  17
HETATM   17  C   UNL     1      41.257  43.002  36.706  1.00  0.00     0.178 C 
BRANCH  17  18
HETATM   18  S   UNL     1      39.491  42.877  36.723  1.00  0.00     0.118 S 
HETATM   19  O   UNL     1      39.144  43.127  35.326  1.00  0.00    -0.594 OA
HETATM   20  O   UNL     1      39.077  43.925  37.653  1.00  0.00    -0.594 OA
HETATM   21  O   UNL     1      39.257  41.512  37.181  1.00  0.00    -0.594 OA
ENDBRANCH  17  18
ENDBRANCH   3  17
BRANCH   4  22
HETATM   22  O   UNL     1      44.326  42.578  32.797  1.00  0.00    -0.380 OA
HETATM   23  H   UNL     1      44.495  41.887  33.472  1.00  0.00     0.211 HD
ENDBRANCH   4  22
BRANCH   2  24
HETATM   24  O   UNL     1      42.157  41.489  34.057  1.00  0.00    -0.380 OA
HETATM   25  H   UNL     1      41.978  41.630  33.092  1.00  0.00     0.211 HD
ENDBRANCH   2  24
TORSDOF 11
ENDMDL
MODEL 8
REMARK VINA RESULT:    -4.362      2.940      5.601
REMARK INTER + INTRA:          -7.834
REMARK INTER:                  -6.583
REMARK INTRA:                  -1.251
REMARK UNBOUND:                -1.305
REMARK  11 active torsions:
REMARK  status: ('A' for Active; 'I' for Inactive)
REMARK    1  A    between atoms: S_1  and  C_17 
REMARK    2  A    between atoms: O_3  and  C_16 
REMARK    3  A    between atoms: O_3  and  C_18 
REMARK    4  A    between atoms: O_4  and  C_12 
REMARK    5  A    between atoms: O_5  and  C_14 
REMARK    6  A    between atoms: O_6  and  C_15 
REMARK    7  A    between atoms: O_10  and  C_19 
REMARK    8  A    between atoms: O_11  and  C_20 
REMARK    9  A    between atoms: C_13  and  C_17 
REMARK   10  A    between atoms: C_18  and  C_19 
REMARK   11  A    between atoms: C_19  and  C_20 
ROOT
HETATM    1  O   UNL     1      40.365  45.487  36.785  1.00  0.00    -0.328 OA
HETATM    2  C   UNL     1      42.685  44.709  36.771  1.00  0.00     0.168 C 
HETATM    3  C   UNL     1      41.212  44.347  36.483  1.00  0.00     0.166 C 
HETATM    4  C   UNL     1      43.074  45.983  35.997  1.00  0.00     0.172 C 
HETATM    5  C   UNL     1      42.083  47.124  36.234  1.00  0.00     0.197 C 
HETATM    6  C   UNL     1      40.649  46.628  35.982  1.00  0.00     0.266 C 
ENDROOT
BRANCH   6   7
HETATM    7  O   UNL     1      40.471  46.345  34.587  1.00  0.00    -0.326 OA
BRANCH   7   8
HETATM    8  C   UNL     1      39.144  46.657  34.154  1.00  0.00     0.177 C 
BRANCH   8   9
HETATM    9  C   UNL     1      39.169  47.332  32.782  1.00  0.00     0.170 C 
BRANCH   9  10
HETATM   10  O   UNL     1      38.291  46.636  31.884  1.00  0.00    -0.380 OA
HETATM   11  H   UNL     1      38.882  46.351  31.156  1.00  0.00     0.211 HD
ENDBRANCH   9  10
BRANCH   9  12
HETATM   12  C   UNL     1      40.580  47.335  32.187  1.00  0.00     0.169 C 
BRANCH  12  13
HETATM   13  O   UNL     1      41.266  48.516  32.623  1.00  0.00    -0.380 OA
HETATM   14  H   UNL     1      41.377  48.376  33.586  1.00  0.00     0.211 HD
ENDBRANCH  12  13
ENDBRANCH   9  12
ENDBRANCH   8   9
ENDBRANCH   7   8
ENDBRANCH   6   7
BRANCH   5  15
HETATM   15  O   UNL     1      42.369  48.248  35.381  1.00  0.00    -0.378 OA
HETATM   16  H   UNL     1      43.016  48.790  35.871  1.00  0.00     0.211 HD
ENDBRANCH   5  15
BRANCH   3  17
HETATM   17  C   UNL     1      40.672  43.191  37.319  1.00  0.00     0.178 C 
BRANCH  17  18
HETATM   18  S   UNL     1      40.383  41.734  36.355  1.00  0.00     0.118 S 
HETATM   19  O   UNL     1      41.547  41.703  35.474  1.00  0.00    -0.594 OA
HETATM   20  O   UNL     1      39.114  42.007  35.684  1.00  0.00    -0.594 OA
HETATM   21  O   UNL     1      40.339  40.674  37.357  1.00  0.00    -0.594 OA
ENDBRANCH  17  18
ENDBRANCH   3  17
BRANCH   4  22
HETATM   22  O   UNL     1      44.402  46.371  36.398  1.00  0.00    -0.380 OA
HETATM   23  H   UNL     1      44.826  46.646  35.558  1.00  0.00     0.211 HD
ENDBRANCH   4  22
BRANCH   2  24
HETATM   24  O   UNL     1      43.666  43.738  36.395  1.00  0.00    -0.380 OA
HETATM   25  H   UNL     1      43.270  43.086  35.761  1.00  0.00     0.211 HD
ENDBRANCH   2  24
TORSDOF 11
ENDMDL
MODEL 9
REMARK VINA RESULT:    -4.353      2.151      4.176
REMARK INTER + INTRA:          -7.821
REMARK INTER:                  -6.210
REMARK INTRA:                  -1.611
REMARK UNBOUND:                -1.305
REMARK  11 active torsions:
REMARK  status: ('A' for Active; 'I' for Inactive)
REMARK    1  A    between atoms: S_1  and  C_17 
REMARK    2  A    between atoms: O_3  and  C_16 
REMARK    3  A    between atoms: O_3  and  C_18 
REMARK    4  A    between atoms: O_4  and  C_12 
REMARK    5  A    between atoms: O_5  and  C_14 
REMARK    6  A    between atoms: O_6  and  C_15 
REMARK    7  A    between atoms: O_10  and  C_19 
REMARK    8  A    between atoms: O_11  and  C_20 
REMARK    9  A    between atoms: C_13  and  C_17 
REMARK   10  A    between atoms: C_18  and  C_19 
REMARK   11  A    between atoms: C_19  and  C_20 
ROOT
HETATM    1  O   UNL     1      43.042  46.370  34.593  1.00  0.00    -0.328 OA
HETATM    2  C   UNL     1      41.447  47.797  33.407  1.00  0.00     0.168 C 
HETATM    3  C   UNL     1      42.871  47.200  33.414  1.00  0.00     0.166 C 
HETATM    4  C   UNL     1      40.404  46.669  33.517  1.00  0.00     0.172 C 
HETATM    5  C   UNL     1      40.693  45.733  34.692  1.00  0.00     0.197 C 
HETATM    6  C   UNL     1      42.154  45.257  34.632  1.00  0.00     0.266 C 
ENDROOT
BRANCH   6   7
HETATM    7  O   UNL     1      42.339  44.400  33.497  1.00  0.00    -0.326 OA
BRANCH   7   8
HETATM    8  C   UNL     1      43.623  43.769  33.520  1.00  0.00     0.177 C 
BRANCH   8   9
HETATM    9  C   UNL     1      44.233  43.737  32.119  1.00  0.00     0.170 C 
BRANCH   9  10
HETATM   10  O   UNL     1      44.994  44.935  31.895  1.00  0.00    -0.380 OA
HETATM   11  H   UNL     1      45.017  45.362  32.777  1.00  0.00     0.211 HD
ENDBRANCH   9  10
BRANCH   9  12
HETATM   12  C   UNL     1      43.152  43.632  31.040  1.00  0.00     0.169 C 
BRANCH  12  13
HETATM   13  O   UNL     1      42.858  44.945  30.546  1.00  0.00    -0.380 OA
HETATM   14  H   UNL     1      43.061  44.884  29.590  1.00  0.00     0.211 HD
ENDBRANCH  12  13
ENDBRANCH   9  12
ENDBRANCH   8   9
ENDBRANCH   7   8
ENDBRANCH   6   7
BRANCH   5  15
HETATM   15  O   UNL     1      39.808  44.598  34.684  1.00  0.00    -0.378 OA
HETATM   16  H   UNL     1      40.382  43.817  34.796  1.00  0.00     0.211 HD
ENDBRANCH   5  15
BRANCH   3  17
HETATM   17  C   UNL     1      43.989  48.237  33.468  1.00  0.00     0.178 C 
BRANCH  17  18
HETATM   18  S   UNL     1      44.832  48.405  31.919  1.00  0.00     0.118 S 
HETATM   19  O   UNL     1      46.119  47.770  32.191  1.00  0.00    -0.594 OA
HETATM   20  O   UNL     1      44.895  49.850  31.712  1.00  0.00    -0.594 OA
HETATM   21  O   UNL     1      43.972  47.682  30.990  1.00  0.00    -0.594 OA
ENDBRANCH  17  18
ENDBRANCH   3  17
BRANCH   4  22
HETATM   22  O   UNL     1      39.100  47.268  33.652  1.00  0.00    -0.380 OA
HETATM   23  H   UNL     1      38.674  46.734  34.355  1.00  0.00     0.211 HD
ENDBRANCH   4  22
BRANCH   2  24
HETATM   24  O   UNL     1      41.070  48.533  32.240  1.00  0.00    -0.380 OA
HETATM   25  H   UNL     1      40.124  48.820  32.314  1.00  0.00     0.211 HD
ENDBRANCH   2  24
TORSDOF 11
ENDMDL
MODEL 10
REMARK VINA RESULT:    -4.115      2.901      4.963
REMARK INTER + INTRA:          -7.464
REMARK INTER:                  -5.647
REMARK INTRA:                  -1.816
REMARK UNBOUND:                -1.305
REMARK  11 active torsions:
REMARK  status: ('A' for Active; 'I' for Inactive)
REMARK    1  A    between atoms: S_1  and  C_17 
REMARK    2  A    between atoms: O_3  and  C_16 
REMARK    3  A    between atoms: O_3  and  C_18 
REMARK    4  A    between atoms: O_4  and  C_12 
REMARK    5  A    between atoms: O_5  and  C_14 
REMARK    6  A    between atoms: O_6  and  C_15 
REMARK    7  A    between atoms: O_10  and  C_19 
REMARK    8  A    between atoms: O_11  and  C_20 
REMARK    9  A    between atoms: C_13  and  C_17 
REMARK   10  A    between atoms: C_18  and  C_19 
REMARK   11  A    between atoms: C_19  and  C_20 
ROOT
HETATM    1  O   UNL     1      43.876  46.245  34.221  1.00  0.00    -0.328 OA
HETATM    2  C   UNL     1      42.700  47.721  32.664  1.00  0.00     0.168 C 
HETATM    3  C   UNL     1      42.607  46.905  33.971  1.00  0.00     0.166 C 
HETATM    4  C   UNL     1      43.891  48.694  32.736  1.00  0.00     0.172 C 
HETATM    5  C   UNL     1      45.187  47.987  33.134  1.00  0.00     0.197 C 
HETATM    6  C   UNL     1      44.956  47.155  34.407  1.00  0.00     0.266 C 
ENDROOT
BRANCH   6   7
HETATM    7  O   UNL     1      44.721  48.026  35.521  1.00  0.00    -0.326 OA
BRANCH   7   8
HETATM    8  C   UNL     1      45.297  47.507  36.724  1.00  0.00     0.177 C 
BRANCH   8   9
HETATM    9  C   UNL     1      44.218  47.274  37.781  1.00  0.00     0.170 C 
BRANCH   9  10
HETATM   10  O   UNL     1      43.336  46.225  37.350  1.00  0.00    -0.380 OA
HETATM   11  H   UNL     1      43.473  46.193  36.380  1.00  0.00     0.211 HD
ENDBRANCH   9  10
BRANCH   9  12
HETATM   12  C   UNL     1      43.392  48.541  38.027  1.00  0.00     0.169 C 
BRANCH  12  13
HETATM   13  O   UNL     1      42.319  48.588  37.078  1.00  0.00    -0.380 OA
HETATM   14  H   UNL     1      42.607  49.268  36.435  1.00  0.00     0.211 HD
ENDBRANCH  12  13
ENDBRANCH   9  12
ENDBRANCH   8   9
ENDBRANCH   7   8
ENDBRANCH   6   7
BRANCH   5  15
HETATM   15  O   UNL     1      46.250  48.932  33.354  1.00  0.00    -0.378 OA
HETATM   16  H   UNL     1      45.811  49.794  33.484  1.00  0.00     0.211 HD
ENDBRANCH   5  15
BRANCH   3  17
HETATM   17  C   UNL     1      41.557  45.797  33.950  1.00  0.00     0.178 C 
BRANCH  17  18
HETATM   18  S   UNL     1      40.156  46.172  34.965  1.00  0.00     0.118 S 
HETATM   19  O   UNL     1      40.772  46.475  36.254  1.00  0.00    -0.594 OA
HETATM   20  O   UNL     1      39.367  44.942  34.938  1.00  0.00    -0.594 OA
HETATM   21  O   UNL     1      39.549  47.313  34.289  1.00  0.00    -0.594 OA
ENDBRANCH  17  18
ENDBRANCH   3  17
BRANCH   4  22
HETATM   22  O   UNL     1      44.034  49.333  31.452  1.00  0.00    -0.380 OA
HETATM   23  H   UNL     1      43.126  49.310  31.081  1.00  0.00     0.211 HD
ENDBRANCH   4  22
BRANCH   2  24
HETATM   24  O   UNL     1      41.573  48.543  32.344  1.00  0.00    -0.380 OA
HETATM   25  H   UNL     1      41.848  49.495  32.315  1.00  0.00     0.211 HD
ENDBRANCH   2  24
TORSDOF 11
ENDMDL
