MODEL 1
REMARK VINA RESULT:    -4.904      0.000      0.000
REMARK INTER + INTRA:          -8.591
REMARK INTER:                  -7.340
REMARK INTRA:                  -1.251
REMARK UNBOUND:                -1.251
REMARK  11 active torsions:
REMARK  status: ('A' for Active; 'I' for Inactive)
REMARK    1  A    between atoms: S_1  and  C_17 
REMARK    2  A    between atoms: O_3  and  C_16 
REMARK    3  A    between atoms: O_3  and  C_18 
REMARK    4  A    between atoms: O_4  and  C_12 
REMARK    5  A    between atoms: O_5  and  C_14 
REMARK    6  A    between atoms: O_6  and  C_15 
REMARK    7  A    between atoms: O_10  and  C_19 
REMARK    8  A    between atoms: O_11  and  C_20 
REMARK    9  A    between atoms: C_13  and  C_17 
REMARK   10  A    between atoms: C_18  and  C_19 
REMARK   11  A    between atoms: C_19  and  C_20 
ROOT
HETATM    1  O   UNL     1      42.699  46.314  34.788  1.00  0.00    -0.328 OA
HETATM    2  C   UNL     1      41.357  47.115  32.906  1.00  0.00     0.168 C 
HETATM    3  C   UNL     1      42.437  46.117  33.373  1.00  0.00     0.166 C 
HETATM    4  C   UNL     1      40.099  46.980  33.785  1.00  0.00     0.172 C 
HETATM    5  C   UNL     1      40.431  47.058  35.276  1.00  0.00     0.197 C 
HETATM    6  C   UNL     1      41.562  46.071  35.610  1.00  0.00     0.266 C 
ENDROOT
BRANCH   6   7
HETATM    7  O   UNL     1      41.090  44.724  35.466  1.00  0.00    -0.326 OA
BRANCH   7   8
HETATM    8  C   UNL     1      41.211  43.992  36.690  1.00  0.00     0.177 C 
BRANCH   8   9
HETATM    9  C   UNL     1      39.931  43.207  36.976  1.00  0.00     0.170 C 
BRANCH   9  10
HETATM   10  O   UNL     1      38.946  43.505  35.975  1.00  0.00    -0.380 OA
HETATM   11  H   UNL     1      38.645  44.408  36.208  1.00  0.00     0.211 HD
ENDBRANCH   9  10
BRANCH   9  12
HETATM   12  C   UNL     1      39.356  43.557  38.353  1.00  0.00     0.169 C 
BRANCH  12  13
HETATM   13  O   UNL     1      38.911  44.920  38.337  1.00  0.00    -0.380 OA
HETATM   14  H   UNL     1      39.731  45.434  38.484  1.00  0.00     0.211 HD
ENDBRANCH  12  13
ENDBRANCH   9  12
ENDBRANCH   8   9
ENDBRANCH   7   8
ENDBRANCH   6   7
BRANCH   5  15
HETATM   15  O   UNL     1      39.275  46.769  36.083  1.00  0.00    -0.378 OA
HETATM   16  H   UNL     1      38.552  47.306  35.707  1.00  0.00     0.211 HD
ENDBRANCH   5  15
BRANCH   3  17
HETATM   17  C   UNL     1      43.784  46.271  32.673  1.00  0.00     0.178 C 
BRANCH  17  18
HETATM   18  S   UNL     1      43.874  45.346  31.166  1.00  0.00     0.118 S 
HETATM   19  O   UNL     1      42.841  44.332  31.356  1.00  0.00    -0.594 OA
HETATM   20  O   UNL     1      45.242  44.832  31.154  1.00  0.00    -0.594 OA
HETATM   21  O   UNL     1      43.578  46.344  30.144  1.00  0.00    -0.594 OA
ENDBRANCH  17  18
ENDBRANCH   3  17
BRANCH   4  22
HETATM   22  O   UNL     1      39.172  48.018  33.415  1.00  0.00    -0.380 OA
HETATM   23  H   UNL     1      39.127  48.583  34.216  1.00  0.00     0.211 HD
ENDBRANCH   4  22
BRANCH   2  24
HETATM   24  O   UNL     1      40.884  46.961  31.564  1.00  0.00    -0.380 OA
HETATM   25  H   UNL     1      41.446  46.301  31.082  1.00  0.00     0.211 HD
ENDBRANCH   2  24
TORSDOF 11
ENDMDL
MODEL 2
REMARK VINA RESULT:    -4.753      2.648      3.917
REMARK INTER + INTRA:          -8.366
REMARK INTER:                  -6.865
REMARK INTRA:                  -1.501
REMARK UNBOUND:                -1.251
REMARK  11 active torsions:
REMARK  status: ('A' for Active; 'I' for Inactive)
REMARK    1  A    between atoms: S_1  and  C_17 
REMARK    2  A    between atoms: O_3  and  C_16 
REMARK    3  A    between atoms: O_3  and  C_18 
REMARK    4  A    between atoms: O_4  and  C_12 
REMARK    5  A    between atoms: O_5  and  C_14 
REMARK    6  A    between atoms: O_6  and  C_15 
REMARK    7  A    between atoms: O_10  and  C_19 
REMARK    8  A    between atoms: O_11  and  C_20 
REMARK    9  A    between atoms: C_13  and  C_17 
REMARK   10  A    between atoms: C_18  and  C_19 
REMARK   11  A    between atoms: C_19  and  C_20 
ROOT
HETATM    1  O   UNL     1      40.411  46.867  35.800  1.00  0.00    -0.328 OA
HETATM    2  C   UNL     1      42.044  48.126  34.484  1.00  0.00     0.168 C 
HETATM    3  C   UNL     1      41.831  47.118  35.634  1.00  0.00     0.166 C 
HETATM    4  C   UNL     1      41.359  47.614  33.203  1.00  0.00     0.172 C 
HETATM    5  C   UNL     1      39.899  47.231  33.446  1.00  0.00     0.197 C 
HETATM    6  C   UNL     1      39.804  46.281  34.652  1.00  0.00     0.266 C 
ENDROOT
BRANCH   6   7
HETATM    7  O   UNL     1      40.408  45.021  34.327  1.00  0.00    -0.326 OA
BRANCH   7   8
HETATM    8  C   UNL     1      39.482  43.941  34.479  1.00  0.00     0.177 C 
BRANCH   8   9
HETATM    9  C   UNL     1      40.053  42.867  35.405  1.00  0.00     0.170 C 
BRANCH   9  10
HETATM   10  O   UNL     1      39.377  41.621  35.177  1.00  0.00    -0.380 OA
HETATM   11  H   UNL     1      38.454  41.807  35.450  1.00  0.00     0.211 HD
ENDBRANCH   9  10
BRANCH   9  12
HETATM   12  C   UNL     1      39.890  43.255  36.878  1.00  0.00     0.169 C 
BRANCH  12  13
HETATM   13  O   UNL     1      40.883  44.232  37.214  1.00  0.00    -0.380 OA
HETATM   14  H   UNL     1      40.358  44.997  37.529  1.00  0.00     0.211 HD
ENDBRANCH  12  13
ENDBRANCH   9  12
ENDBRANCH   8   9
ENDBRANCH   7   8
ENDBRANCH   6   7
BRANCH   5  15
HETATM   15  O   UNL     1      39.324  46.605  32.285  1.00  0.00    -0.378 OA
HETATM   16  H   UNL     1      38.901  47.326  31.781  1.00  0.00     0.211 HD
ENDBRANCH   5  15
BRANCH   3  17
HETATM   17  C   UNL     1      42.332  47.597  36.993  1.00  0.00     0.178 C 
BRANCH  17  18
HETATM   18  S   UNL     1      43.815  46.771  37.498  1.00  0.00     0.118 S 
HETATM   19  O   UNL     1      43.896  47.107  38.917  1.00  0.00    -0.594 OA
HETATM   20  O   UNL     1      44.852  47.377  36.666  1.00  0.00    -0.594 OA
HETATM   21  O   UNL     1      43.531  45.369  37.211  1.00  0.00    -0.594 OA
ENDBRANCH  17  18
ENDBRANCH   3  17
BRANCH   4  22
HETATM   22  O   UNL     1      41.455  48.640  32.196  1.00  0.00    -0.380 OA
HETATM   23  H   UNL     1      42.412  48.669  31.986  1.00  0.00     0.211 HD
ENDBRANCH   4  22
BRANCH   2  24
HETATM   24  O   UNL     1      43.399  48.379  34.100  1.00  0.00    -0.380 OA
HETATM   25  H   UNL     1      43.445  48.562  33.126  1.00  0.00     0.211 HD
ENDBRANCH   2  24
TORSDOF 11
ENDMDL
MODEL 3
REMARK VINA RESULT:    -4.726      2.357      5.800
REMARK INTER + INTRA:          -8.326
REMARK INTER:                  -7.428
REMARK INTRA:                  -0.898
REMARK UNBOUND:                -1.251
REMARK  11 active torsions:
REMARK  status: ('A' for Active; 'I' for Inactive)
REMARK    1  A    between atoms: S_1  and  C_17 
REMARK    2  A    between atoms: O_3  and  C_16 
REMARK    3  A    between atoms: O_3  and  C_18 
REMARK    4  A    between atoms: O_4  and  C_12 
REMARK    5  A    between atoms: O_5  and  C_14 
REMARK    6  A    between atoms: O_6  and  C_15 
REMARK    7  A    between atoms: O_10  and  C_19 
REMARK    8  A    between atoms: O_11  and  C_20 
REMARK    9  A    between atoms: C_13  and  C_17 
REMARK   10  A    between atoms: C_18  and  C_19 
REMARK   11  A    between atoms: C_19  and  C_20 
ROOT
HETATM    1  O   UNL     1      41.260  44.703  33.162  1.00  0.00    -0.328 OA
HETATM    2  C   UNL     1      40.016  46.195  34.649  1.00  0.00     0.168 C 
HETATM    3  C   UNL     1      40.684  44.812  34.490  1.00  0.00     0.166 C 
HETATM    4  C   UNL     1      41.031  47.309  34.329  1.00  0.00     0.172 C 
HETATM    5  C   UNL     1      41.718  47.089  32.981  1.00  0.00     0.197 C 
HETATM    6  C   UNL     1      42.284  45.660  32.912  1.00  0.00     0.266 C 
ENDROOT
BRANCH   6   7
HETATM    7  O   UNL     1      43.368  45.522  33.841  1.00  0.00    -0.326 OA
BRANCH   7   8
HETATM    8  C   UNL     1      44.430  44.733  33.295  1.00  0.00     0.177 C 
BRANCH   8   9
HETATM    9  C   UNL     1      44.536  44.943  31.784  1.00  0.00     0.170 C 
BRANCH   9  10
HETATM   10  O   UNL     1      44.838  43.694  31.142  1.00  0.00    -0.380 OA
HETATM   11  H   UNL     1      45.692  43.866  30.694  1.00  0.00     0.211 HD
ENDBRANCH   9  10
BRANCH   9  12
HETATM   12  C   UNL     1      45.632  45.954  31.435  1.00  0.00     0.169 C 
BRANCH  12  13
HETATM   13  O   UNL     1      45.336  46.538  30.160  1.00  0.00    -0.380 OA
HETATM   14  H   UNL     1      44.367  46.675  30.186  1.00  0.00     0.211 HD
ENDBRANCH  12  13
ENDBRANCH   9  12
ENDBRANCH   8   9
ENDBRANCH   7   8
ENDBRANCH   6   7
BRANCH   5  15
HETATM   15  O   UNL     1      42.774  48.044  32.772  1.00  0.00    -0.378 OA
HETATM   16  H   UNL     1      43.126  47.856  31.881  1.00  0.00     0.211 HD
ENDBRANCH   5  15
BRANCH   3  17
HETATM   17  C   UNL     1      39.729  43.631  34.630  1.00  0.00     0.178 C 
BRANCH  17  18
HETATM   18  S   UNL     1      39.879  42.819  36.197  1.00  0.00     0.118 S 
HETATM   19  O   UNL     1      38.998  43.614  37.049  1.00  0.00    -0.594 OA
HETATM   20  O   UNL     1      41.301  42.932  36.513  1.00  0.00    -0.594 OA
HETATM   21  O   UNL     1      39.411  41.466  35.919  1.00  0.00    -0.594 OA
ENDBRANCH  17  18
ENDBRANCH   3  17
BRANCH   4  22
HETATM   22  O   UNL     1      40.339  48.573  34.348  1.00  0.00    -0.380 OA
HETATM   23  H   UNL     1      40.471  48.894  35.265  1.00  0.00     0.211 HD
ENDBRANCH   4  22
BRANCH   2  24
HETATM   24  O   UNL     1      39.517  46.517  35.951  1.00  0.00    -0.380 OA
HETATM   25  H   UNL     1      39.979  45.965  36.635  1.00  0.00     0.211 HD
ENDBRANCH   2  24
TORSDOF 11
ENDMDL
MODEL 4
REMARK VINA RESULT:    -4.687      1.665      2.348
REMARK INTER + INTRA:          -8.267
REMARK INTER:                  -7.282
REMARK INTRA:                  -0.986
REMARK UNBOUND:                -1.251
REMARK  11 active torsions:
REMARK  status: ('A' for Active; 'I' for Inactive)
REMARK    1  A    between atoms: S_1  and  C_17 
REMARK    2  A    between atoms: O_3  and  C_16 
REMARK    3  A    between atoms: O_3  and  C_18 
REMARK    4  A    between atoms: O_4  and  C_12 
REMARK    5  A    between atoms: O_5  and  C_14 
REMARK    6  A    between atoms: O_6  and  C_15 
REMARK    7  A    between atoms: O_10  and  C_19 
REMARK    8  A    between atoms: O_11  and  C_20 
REMARK    9  A    between atoms: C_13  and  C_17 
REMARK   10  A    between atoms: C_18  and  C_19 
REMARK   11  A    between atoms: C_19  and  C_20 
ROOT
HETATM    1  O   UNL     1      43.954  46.563  34.429  1.00  0.00    -0.328 OA
HETATM    2  C   UNL     1      43.198  47.614  32.354  1.00  0.00     0.168 C 
HETATM    3  C   UNL     1      44.087  46.521  32.984  1.00  0.00     0.166 C 
HETATM    4  C   UNL     1      41.744  47.453  32.838  1.00  0.00     0.172 C 
HETATM    5  C   UNL     1      41.654  47.365  34.363  1.00  0.00     0.197 C 
HETATM    6  C   UNL     1      42.630  46.294  34.880  1.00  0.00     0.266 C 
ENDROOT
BRANCH   6   7
HETATM    7  O   UNL     1      42.188  44.994  34.466  1.00  0.00    -0.326 OA
BRANCH   7   8
HETATM    8  C   UNL     1      41.919  44.149  35.588  1.00  0.00     0.177 C 
BRANCH   8   9
HETATM    9  C   UNL     1      40.488  43.615  35.530  1.00  0.00     0.170 C 
BRANCH   9  10
HETATM   10  O   UNL     1      39.611  44.501  36.243  1.00  0.00    -0.380 OA
HETATM   11  H   UNL     1      40.144  45.317  36.350  1.00  0.00     0.211 HD
ENDBRANCH   9  10
BRANCH   9  12
HETATM   12  C   UNL     1      40.386  42.218  36.149  1.00  0.00     0.169 C 
BRANCH  12  13
HETATM   13  O   UNL     1      39.545  41.403  35.322  1.00  0.00    -0.380 OA
HETATM   14  H   UNL     1      39.885  40.496  35.468  1.00  0.00     0.211 HD
ENDBRANCH  12  13
ENDBRANCH   9  12
ENDBRANCH   8   9
ENDBRANCH   7   8
ENDBRANCH   6   7
BRANCH   5  15
HETATM   15  O   UNL     1      40.315  47.054  34.788  1.00  0.00    -0.378 OA
HETATM   16  H   UNL     1      39.795  46.959  33.968  1.00  0.00     0.211 HD
ENDBRANCH   5  15
BRANCH   3  17
HETATM   17  C   UNL     1      45.577  46.678  32.697  1.00  0.00     0.178 C 
BRANCH  17  18
HETATM   18  S   UNL     1      46.095  45.757  31.275  1.00  0.00     0.118 S 
HETATM   19  O   UNL     1      45.830  46.690  30.183  1.00  0.00    -0.594 OA
HETATM   20  O   UNL     1      45.235  44.576  31.293  1.00  0.00    -0.594 OA
HETATM   21  O   UNL     1      47.506  45.501  31.539  1.00  0.00    -0.594 OA
ENDBRANCH  17  18
ENDBRANCH   3  17
BRANCH   4  22
HETATM   22  O   UNL     1      40.976  48.569  32.347  1.00  0.00    -0.380 OA
HETATM   23  H   UNL     1      40.339  48.154  31.727  1.00  0.00     0.211 HD
ENDBRANCH   4  22
BRANCH   2  24
HETATM   24  O   UNL     1      43.110  47.619  30.925  1.00  0.00    -0.380 OA
HETATM   25  H   UNL     1      42.536  46.870  30.620  1.00  0.00     0.211 HD
ENDBRANCH   2  24
TORSDOF 11
ENDMDL
MODEL 5
REMARK VINA RESULT:    -4.584      2.461      5.833
REMARK INTER + INTRA:          -8.113
REMARK INTER:                  -6.701
REMARK INTRA:                  -1.412
REMARK UNBOUND:                -1.251
REMARK  11 active torsions:
REMARK  status: ('A' for Active; 'I' for Inactive)
REMARK    1  A    between atoms: S_1  and  C_17 
REMARK    2  A    between atoms: O_3  and  C_16 
REMARK    3  A    between atoms: O_3  and  C_18 
REMARK    4  A    between atoms: O_4  and  C_12 
REMARK    5  A    between atoms: O_5  and  C_14 
REMARK    6  A    between atoms: O_6  and  C_15 
REMARK    7  A    between atoms: O_10  and  C_19 
REMARK    8  A    between atoms: O_11  and  C_20 
REMARK    9  A    between atoms: C_13  and  C_17 
REMARK   10  A    between atoms: C_18  and  C_19 
REMARK   11  A    between atoms: C_19  and  C_20 
ROOT
HETATM    1  O   UNL     1      42.318  45.274  33.362  1.00  0.00    -0.328 OA
HETATM    2  C   UNL     1      40.183  45.767  34.450  1.00  0.00     0.168 C 
HETATM    3  C   UNL     1      41.595  45.164  34.616  1.00  0.00     0.166 C 
HETATM    4  C   UNL     1      40.287  47.213  33.929  1.00  0.00     0.172 C 
HETATM    5  C   UNL     1      41.169  47.312  32.683  1.00  0.00     0.197 C 
HETATM    6  C   UNL     1      42.518  46.621  32.944  1.00  0.00     0.266 C 
ENDROOT
BRANCH   6   7
HETATM    7  O   UNL     1      43.265  47.366  33.915  1.00  0.00    -0.326 OA
BRANCH   7   8
HETATM    8  C   UNL     1      44.601  47.619  33.468  1.00  0.00     0.177 C 
BRANCH   8   9
HETATM    9  C   UNL     1      44.840  49.120  33.307  1.00  0.00     0.170 C 
BRANCH   9  10
HETATM   10  O   UNL     1      43.702  49.847  33.795  1.00  0.00    -0.380 OA
HETATM   11  H   UNL     1      43.429  49.342  34.590  1.00  0.00     0.211 HD
ENDBRANCH   9  10
BRANCH   9  12
HETATM   12  C   UNL     1      45.073  49.496  31.840  1.00  0.00     0.169 C 
BRANCH  12  13
HETATM   13  O   UNL     1      44.148  48.768  31.022  1.00  0.00    -0.380 OA
HETATM   14  H   UNL     1      44.490  47.851  31.045  1.00  0.00     0.211 HD
ENDBRANCH  12  13
ENDBRANCH   9  12
ENDBRANCH   8   9
ENDBRANCH   7   8
ENDBRANCH   6   7
BRANCH   5  15
HETATM   15  O   UNL     1      41.387  48.684  32.306  1.00  0.00    -0.378 OA
HETATM   16  H   UNL     1      42.318  48.873  32.531  1.00  0.00     0.211 HD
ENDBRANCH   5  15
BRANCH   3  17
HETATM   17  C   UNL     1      41.609  43.682  34.977  1.00  0.00     0.178 C 
BRANCH  17  18
HETATM   18  S   UNL     1      41.340  43.403  36.705  1.00  0.00     0.118 S 
HETATM   19  O   UNL     1      42.235  42.283  36.986  1.00  0.00    -0.594 OA
HETATM   20  O   UNL     1      39.917  43.084  36.789  1.00  0.00    -0.594 OA
HETATM   21  O   UNL     1      41.728  44.671  37.313  1.00  0.00    -0.594 OA
ENDBRANCH  17  18
ENDBRANCH   3  17
BRANCH   4  22
HETATM   22  O   UNL     1      38.957  47.692  33.651  1.00  0.00    -0.380 OA
HETATM   23  H   UNL     1      39.097  48.633  33.413  1.00  0.00     0.211 HD
ENDBRANCH   4  22
BRANCH   2  24
HETATM   24  O   UNL     1      39.386  45.860  35.634  1.00  0.00    -0.380 OA
HETATM   25  H   UNL     1      38.961  46.755  35.685  1.00  0.00     0.211 HD
ENDBRANCH   2  24
TORSDOF 11
ENDMDL
MODEL 6
REMARK VINA RESULT:    -4.573      2.683      5.845
REMARK INTER + INTRA:          -8.097
REMARK INTER:                  -6.852
REMARK INTRA:                  -1.245
REMARK UNBOUND:                -1.251
REMARK  11 active torsions:
REMARK  status: ('A' for Active; 'I' for Inactive)
REMARK    1  A    between atoms: S_1  and  C_17 
REMARK    2  A    between atoms: O_3  and  C_16 
REMARK    3  A    between atoms: O_3  and  C_18 
REMARK    4  A    between atoms: O_4  and  C_12 
REMARK    5  A    between atoms: O_5  and  C_14 
REMARK    6  A    between atoms: O_6  and  C_15 
REMARK    7  A    between atoms: O_10  and  C_19 
REMARK    8  A    between atoms: O_11  and  C_20 
REMARK    9  A    between atoms: C_13  and  C_17 
REMARK   10  A    between atoms: C_18  and  C_19 
REMARK   11  A    between atoms: C_19  and  C_20 
ROOT
HETATM    1  O   UNL     1      41.480  45.172  36.340  1.00  0.00    -0.328 OA
HETATM    2  C   UNL     1      42.832  43.284  35.569  1.00  0.00     0.168 C 
HETATM    3  C   UNL     1      41.445  43.747  36.065  1.00  0.00     0.166 C 
HETATM    4  C   UNL     1      43.266  44.130  34.357  1.00  0.00     0.172 C 
HETATM    5  C   UNL     1      43.162  45.630  34.637  1.00  0.00     0.197 C 
HETATM    6  C   UNL     1      41.764  45.961  35.188  1.00  0.00     0.266 C 
ENDROOT
BRANCH   6   7
HETATM    7  O   UNL     1      40.780  45.766  34.164  1.00  0.00    -0.326 OA
BRANCH   7   8
HETATM    8  C   UNL     1      39.591  46.516  34.430  1.00  0.00     0.177 C 
BRANCH   8   9
HETATM    9  C   UNL     1      39.160  47.300  33.190  1.00  0.00     0.170 C 
BRANCH   9  10
HETATM   10  O   UNL     1      38.047  46.643  32.564  1.00  0.00    -0.380 OA
HETATM   11  H   UNL     1      37.321  46.747  33.215  1.00  0.00     0.211 HD
ENDBRANCH   9  10
BRANCH   9  12
HETATM   12  C   UNL     1      40.301  47.413  32.174  1.00  0.00     0.169 C 
BRANCH  12  13
HETATM   13  O   UNL     1      41.209  48.434  32.607  1.00  0.00    -0.380 OA
HETATM   14  H   UNL     1      41.735  48.632  31.805  1.00  0.00     0.211 HD
ENDBRANCH  12  13
ENDBRANCH   9  12
ENDBRANCH   8   9
ENDBRANCH   7   8
ENDBRANCH   6   7
BRANCH   5  15
HETATM   15  O   UNL     1      43.414  46.401  33.448  1.00  0.00    -0.378 OA
HETATM   16  H   UNL     1      44.385  46.478  33.387  1.00  0.00     0.211 HD
ENDBRANCH   5  15
BRANCH   3  17
HETATM   17  C   UNL     1      40.984  43.084  37.359  1.00  0.00     0.178 C 
BRANCH  17  18
HETATM   18  S   UNL     1      40.152  41.546  37.074  1.00  0.00     0.118 S 
HETATM   19  O   UNL     1      41.170  40.565  37.442  1.00  0.00    -0.594 OA
HETATM   20  O   UNL     1      39.827  41.585  35.651  1.00  0.00    -0.594 OA
HETATM   21  O   UNL     1      39.007  41.614  37.975  1.00  0.00    -0.594 OA
ENDBRANCH  17  18
ENDBRANCH   3  17
BRANCH   4  22
HETATM   22  O   UNL     1      44.617  43.769  34.012  1.00  0.00    -0.380 OA
HETATM   23  H   UNL     1      44.797  44.296  33.205  1.00  0.00     0.211 HD
ENDBRANCH   4  22
BRANCH   2  24
HETATM   24  O   UNL     1      42.930  41.928  35.124  1.00  0.00    -0.380 OA
HETATM   25  H   UNL     1      43.872  41.714  34.900  1.00  0.00     0.211 HD
ENDBRANCH   2  24
TORSDOF 11
ENDMDL
MODEL 7
REMARK VINA RESULT:    -4.569      2.787      4.783
REMARK INTER + INTRA:          -8.090
REMARK INTER:                  -6.850
REMARK INTRA:                  -1.240
REMARK UNBOUND:                -1.251
REMARK  11 active torsions:
REMARK  status: ('A' for Active; 'I' for Inactive)
REMARK    1  A    between atoms: S_1  and  C_17 
REMARK    2  A    between atoms: O_3  and  C_16 
REMARK    3  A    between atoms: O_3  and  C_18 
REMARK    4  A    between atoms: O_4  and  C_12 
REMARK    5  A    between atoms: O_5  and  C_14 
REMARK    6  A    between atoms: O_6  and  C_15 
REMARK    7  A    between atoms: O_10  and  C_19 
REMARK    8  A    between atoms: O_11  and  C_20 
REMARK    9  A    between atoms: C_13  and  C_17 
REMARK   10  A    between atoms: C_18  and  C_19 
REMARK   11  A    between atoms: C_19  and  C_20 
ROOT
HETATM    1  O   UNL     1      42.594  45.543  34.655  1.00  0.00    -0.328 OA
HETATM    2  C   UNL     1      40.488  45.091  33.494  1.00  0.00     0.168 C 
HETATM    3  C   UNL     1      41.297  44.905  34.796  1.00  0.00     0.166 C 
HETATM    4  C   UNL     1      40.398  46.587  33.141  1.00  0.00     0.172 C 
HETATM    5  C   UNL     1      41.772  47.259  33.133  1.00  0.00     0.197 C 
HETATM    6  C   UNL     1      42.509  46.949  34.447  1.00  0.00     0.266 C 
ENDROOT
BRANCH   6   7
HETATM    7  O   UNL     1      41.849  47.602  35.540  1.00  0.00    -0.326 OA
BRANCH   7   8
HETATM    8  C   UNL     1      42.728  48.500  36.223  1.00  0.00     0.177 C 
BRANCH   8   9
HETATM    9  C   UNL     1      42.741  48.206  37.723  1.00  0.00     0.170 C 
BRANCH   9  10
HETATM   10  O   UNL     1      43.007  49.415  38.451  1.00  0.00    -0.380 OA
HETATM   11  H   UNL     1      43.956  49.586  38.276  1.00  0.00     0.211 HD
ENDBRANCH   9  10
BRANCH   9  12
HETATM   12  C   UNL     1      43.810  47.169  38.081  1.00  0.00     0.169 C 
BRANCH  12  13
HETATM   13  O   UNL     1      43.421  45.897  37.549  1.00  0.00    -0.380 OA
HETATM   14  H   UNL     1      44.227  45.579  37.095  1.00  0.00     0.211 HD
ENDBRANCH  12  13
ENDBRANCH   9  12
ENDBRANCH   8   9
ENDBRANCH   7   8
ENDBRANCH   6   7
BRANCH   5  15
HETATM   15  O   UNL     1      41.655  48.683  32.962  1.00  0.00    -0.378 OA
HETATM   16  H   UNL     1      40.809  48.822  32.495  1.00  0.00     0.211 HD
ENDBRANCH   5  15
BRANCH   3  17
HETATM   17  C   UNL     1      41.584  43.451  35.158  1.00  0.00     0.178 C 
BRANCH  17  18
HETATM   18  S   UNL     1      40.233  42.684  36.008  1.00  0.00     0.118 S 
HETATM   19  O   UNL     1      40.904  41.989  37.103  1.00  0.00    -0.594 OA
HETATM   20  O   UNL     1      39.639  41.809  35.000  1.00  0.00    -0.594 OA
HETATM   21  O   UNL     1      39.406  43.816  36.411  1.00  0.00    -0.594 OA
ENDBRANCH  17  18
ENDBRANCH   3  17
BRANCH   4  22
HETATM   22  O   UNL     1      39.764  46.712  31.853  1.00  0.00    -0.380 OA
HETATM   23  H   UNL     1      40.349  47.332  31.367  1.00  0.00     0.211 HD
ENDBRANCH   4  22
BRANCH   2  24
HETATM   24  O   UNL     1      39.131  44.637  33.516  1.00  0.00    -0.380 OA
HETATM   25  H   UNL     1      39.072  43.775  34.003  1.00  0.00     0.211 HD
ENDBRANCH   2  24
TORSDOF 11
ENDMDL
MODEL 8
REMARK VINA RESULT:    -4.549      2.226      3.043
REMARK INTER + INTRA:          -8.060
REMARK INTER:                  -7.068
REMARK INTRA:                  -0.993
REMARK UNBOUND:                -1.251
REMARK  11 active torsions:
REMARK  status: ('A' for Active; 'I' for Inactive)
REMARK    1  A    between atoms: S_1  and  C_17 
REMARK    2  A    between atoms: O_3  and  C_16 
REMARK    3  A    between atoms: O_3  and  C_18 
REMARK    4  A    between atoms: O_4  and  C_12 
REMARK    5  A    between atoms: O_5  and  C_14 
REMARK    6  A    between atoms: O_6  and  C_15 
REMARK    7  A    between atoms: O_10  and  C_19 
REMARK    8  A    between atoms: O_11  and  C_20 
REMARK    9  A    between atoms: C_13  and  C_17 
REMARK   10  A    between atoms: C_18  and  C_19 
REMARK   11  A    between atoms: C_19  and  C_20 
ROOT
HETATM    1  O   UNL     1      43.298  45.367  33.924  1.00  0.00    -0.328 OA
HETATM    2  C   UNL     1      43.983  46.313  31.775  1.00  0.00     0.168 C 
HETATM    3  C   UNL     1      43.595  45.031  32.543  1.00  0.00     0.166 C 
HETATM    4  C   UNL     1      42.873  47.371  31.922  1.00  0.00     0.172 C 
HETATM    5  C   UNL     1      42.491  47.601  33.386  1.00  0.00     0.197 C 
HETATM    6  C   UNL     1      42.192  46.253  34.064  1.00  0.00     0.266 C 
ENDROOT
BRANCH   6   7
HETATM    7  O   UNL     1      40.995  45.687  33.514  1.00  0.00    -0.326 OA
BRANCH   7   8
HETATM    8  C   UNL     1      40.094  45.265  34.542  1.00  0.00     0.177 C 
BRANCH   8   9
HETATM    9  C   UNL     1      40.454  43.863  35.032  1.00  0.00     0.170 C 
BRANCH   9  10
HETATM   10  O   UNL     1      41.296  43.214  34.067  1.00  0.00    -0.380 OA
HETATM   11  H   UNL     1      42.138  43.077  34.550  1.00  0.00     0.211 HD
ENDBRANCH   9  10
BRANCH   9  12
HETATM   12  C   UNL     1      39.202  43.007  35.247  1.00  0.00     0.169 C 
BRANCH  12  13
HETATM   13  O   UNL     1      39.559  41.623  35.127  1.00  0.00    -0.380 OA
HETATM   14  H   UNL     1      39.393  41.423  34.183  1.00  0.00     0.211 HD
ENDBRANCH  12  13
ENDBRANCH   9  12
ENDBRANCH   8   9
ENDBRANCH   7   8
ENDBRANCH   6   7
BRANCH   5  15
HETATM   15  O   UNL     1      41.347  48.468  33.495  1.00  0.00    -0.378 OA
HETATM   16  H   UNL     1      40.618  47.901  33.813  1.00  0.00     0.211 HD
ENDBRANCH   5  15
BRANCH   3  17
HETATM   17  C   UNL     1      44.691  43.972  32.596  1.00  0.00     0.178 C 
BRANCH  17  18
HETATM   18  S   UNL     1      44.279  42.522  31.666  1.00  0.00     0.118 S 
HETATM   19  O   UNL     1      43.445  41.773  32.603  1.00  0.00    -0.594 OA
HETATM   20  O   UNL     1      45.575  41.913  31.379  1.00  0.00    -0.594 OA
HETATM   21  O   UNL     1      43.574  43.058  30.507  1.00  0.00    -0.594 OA
ENDBRANCH  17  18
ENDBRANCH   3  17
BRANCH   4  22
HETATM   22  O   UNL     1      43.330  48.596  31.317  1.00  0.00    -0.380 OA
HETATM   23  H   UNL     1      42.521  48.963  30.901  1.00  0.00     0.211 HD
ENDBRANCH   4  22
BRANCH   2  24
HETATM   24  O   UNL     1      44.174  46.177  30.363  1.00  0.00    -0.380 OA
HETATM   25  H   UNL     1      44.429  45.243  30.146  1.00  0.00     0.211 HD
ENDBRANCH   2  24
TORSDOF 11
ENDMDL
MODEL 9
REMARK VINA RESULT:    -4.383      2.820      4.275
REMARK INTER + INTRA:          -7.812
REMARK INTER:                  -5.896
REMARK INTRA:                  -1.916
REMARK UNBOUND:                -1.251
REMARK  11 active torsions:
REMARK  status: ('A' for Active; 'I' for Inactive)
REMARK    1  A    between atoms: S_1  and  C_17 
REMARK    2  A    between atoms: O_3  and  C_16 
REMARK    3  A    between atoms: O_3  and  C_18 
REMARK    4  A    between atoms: O_4  and  C_12 
REMARK    5  A    between atoms: O_5  and  C_14 
REMARK    6  A    between atoms: O_6  and  C_15 
REMARK    7  A    between atoms: O_10  and  C_19 
REMARK    8  A    between atoms: O_11  and  C_20 
REMARK    9  A    between atoms: C_13  and  C_17 
REMARK   10  A    between atoms: C_18  and  C_19 
REMARK   11  A    between atoms: C_19  and  C_20 
ROOT
HETATM    1  O   UNL     1      42.674  45.123  34.338  1.00  0.00    -0.328 OA
HETATM    2  C   UNL     1      40.641  46.482  34.405  1.00  0.00     0.168 C 
HETATM    3  C   UNL     1      41.308  45.156  34.830  1.00  0.00     0.166 C 
HETATM    4  C   UNL     1      41.492  47.675  34.880  1.00  0.00     0.172 C 
HETATM    5  C   UNL     1      42.956  47.539  34.458  1.00  0.00     0.197 C 
HETATM    6  C   UNL     1      43.491  46.159  34.874  1.00  0.00     0.266 C 
ENDROOT
BRANCH   6   7
HETATM    7  O   UNL     1      43.570  46.078  36.304  1.00  0.00    -0.326 OA
BRANCH   7   8
HETATM    8  C   UNL     1      44.706  45.318  36.725  1.00  0.00     0.177 C 
BRANCH   8   9
HETATM    9  C   UNL     1      44.265  44.050  37.456  1.00  0.00     0.170 C 
BRANCH   9  10
HETATM   10  O   UNL     1      43.626  43.156  36.532  1.00  0.00    -0.380 OA
HETATM   11  H   UNL     1      43.536  43.692  35.717  1.00  0.00     0.211 HD
ENDBRANCH   9  10
BRANCH   9  12
HETATM   12  C   UNL     1      43.285  44.370  38.590  1.00  0.00     0.169 C 
BRANCH  12  13
HETATM   13  O   UNL     1      41.950  44.348  38.070  1.00  0.00    -0.380 OA
HETATM   14  H   UNL     1      41.452  44.926  38.684  1.00  0.00     0.211 HD
ENDBRANCH  12  13
ENDBRANCH   9  12
ENDBRANCH   8   9
ENDBRANCH   7   8
ENDBRANCH   6   7
BRANCH   5  15
HETATM   15  O   UNL     1      43.765  48.575  35.046  1.00  0.00    -0.378 OA
HETATM   16  H   UNL     1      43.558  49.386  34.543  1.00  0.00     0.211 HD
ENDBRANCH   5  15
BRANCH   3  17
HETATM   17  C   UNL     1      40.634  43.905  34.278  1.00  0.00     0.178 C 
BRANCH  17  18
HETATM   18  S   UNL     1      39.920  42.901  35.550  1.00  0.00     0.118 S 
HETATM   19  O   UNL     1      39.280  43.892  36.411  1.00  0.00    -0.594 OA
HETATM   20  O   UNL     1      41.069  42.224  36.145  1.00  0.00    -0.594 OA
HETATM   21  O   UNL     1      39.001  42.037  34.817  1.00  0.00    -0.594 OA
ENDBRANCH  17  18
ENDBRANCH   3  17
BRANCH   4  22
HETATM   22  O   UNL     1      40.918  48.883  34.345  1.00  0.00    -0.380 OA
HETATM   23  H   UNL     1      41.439  49.595  34.774  1.00  0.00     0.211 HD
ENDBRANCH   4  22
BRANCH   2  24
HETATM   24  O   UNL     1      39.333  46.734  34.927  1.00  0.00    -0.380 OA
HETATM   25  H   UNL     1      39.097  46.040  35.596  1.00  0.00     0.211 HD
ENDBRANCH   2  24
TORSDOF 11
ENDMDL
MODEL 10
REMARK VINA RESULT:    -4.310      2.172      2.776
REMARK INTER + INTRA:          -7.703
REMARK INTER:                  -6.694
REMARK INTRA:                  -1.009
REMARK UNBOUND:                -1.251
REMARK  11 active torsions:
REMARK  status: ('A' for Active; 'I' for Inactive)
REMARK    1  A    between atoms: S_1  and  C_17 
REMARK    2  A    between atoms: O_3  and  C_16 
REMARK    3  A    between atoms: O_3  and  C_18 
REMARK    4  A    between atoms: O_4  and  C_12 
REMARK    5  A    between atoms: O_5  and  C_14 
REMARK    6  A    between atoms: O_6  and  C_15 
REMARK    7  A    between atoms: O_10  and  C_19 
REMARK    8  A    between atoms: O_11  and  C_20 
REMARK    9  A    between atoms: C_13  and  C_17 
REMARK   10  A    between atoms: C_18  and  C_19 
REMARK   11  A    between atoms: C_19  and  C_20 
ROOT
HETATM    1  O   UNL     1      42.577  46.222  34.902  1.00  0.00    -0.328 OA
HETATM    2  C   UNL     1      41.265  47.779  33.546  1.00  0.00     0.168 C 
HETATM    3  C   UNL     1      42.609  47.036  33.700  1.00  0.00     0.166 C 
HETATM    4  C   UNL     1      40.101  46.771  33.571  1.00  0.00     0.172 C 
HETATM    5  C   UNL     1      40.174  45.839  34.782  1.00  0.00     0.197 C 
HETATM    6  C   UNL     1      41.575  45.210  34.870  1.00  0.00     0.266 C 
ENDROOT
BRANCH   6   7
HETATM    7  O   UNL     1      41.773  44.310  33.771  1.00  0.00    -0.326 OA
BRANCH   7   8
HETATM    8  C   UNL     1      41.980  42.968  34.223  1.00  0.00     0.177 C 
BRANCH   8   9
HETATM    9  C   UNL     1      41.864  42.888  35.745  1.00  0.00     0.170 C 
BRANCH   9  10
HETATM   10  O   UNL     1      43.112  42.450  36.303  1.00  0.00    -0.380 OA
HETATM   11  H   UNL     1      43.593  42.081  35.533  1.00  0.00     0.211 HD
ENDBRANCH   9  10
BRANCH   9  12
HETATM   12  C   UNL     1      40.764  41.910  36.171  1.00  0.00     0.169 C 
BRANCH  12  13
HETATM   13  O   UNL     1      39.867  41.711  35.070  1.00  0.00    -0.380 OA
HETATM   14  H   UNL     1      39.149  42.356  35.237  1.00  0.00     0.211 HD
ENDBRANCH  12  13
ENDBRANCH   9  12
ENDBRANCH   8   9
ENDBRANCH   7   8
ENDBRANCH   6   7
BRANCH   5  15
HETATM   15  O   UNL     1      39.177  44.804  34.704  1.00  0.00    -0.378 OA
HETATM   16  H   UNL     1      39.181  44.370  35.578  1.00  0.00     0.211 HD
ENDBRANCH   5  15
BRANCH   3  17
HETATM   17  C   UNL     1      43.822  47.949  33.846  1.00  0.00     0.178 C 
BRANCH  17  18
HETATM   18  S   UNL     1      44.426  48.530  32.286  1.00  0.00     0.118 S 
HETATM   19  O   UNL     1      43.916  49.897  32.240  1.00  0.00    -0.594 OA
HETATM   20  O   UNL     1      43.822  47.618  31.318  1.00  0.00    -0.594 OA
HETATM   21  O   UNL     1      45.874  48.417  32.426  1.00  0.00    -0.594 OA
ENDBRANCH  17  18
ENDBRANCH   3  17
BRANCH   4  22
HETATM   22  O   UNL     1      38.862  47.507  33.570  1.00  0.00    -0.380 OA
HETATM   23  H   UNL     1      38.938  48.086  34.358  1.00  0.00     0.211 HD
ENDBRANCH   4  22
BRANCH   2  24
HETATM   24  O   UNL     1      41.081  48.522  32.337  1.00  0.00    -0.380 OA
HETATM   25  H   UNL     1      40.155  48.876  32.296  1.00  0.00     0.211 HD
ENDBRANCH   2  24
TORSDOF 11
ENDMDL
