MODEL 1
REMARK VINA RESULT:    -4.750      0.000      0.000
REMARK INTER + INTRA:          -8.545
REMARK INTER:                  -7.254
REMARK INTRA:                  -1.291
REMARK UNBOUND:                -1.435
REMARK  11 active torsions:
REMARK  status: ('A' for Active; 'I' for Inactive)
REMARK    1  A    between atoms: S_1  and  C_17 
REMARK    2  A    between atoms: O_3  and  C_16 
REMARK    3  A    between atoms: O_3  and  C_18 
REMARK    4  A    between atoms: O_4  and  C_12 
REMARK    5  A    between atoms: O_5  and  C_14 
REMARK    6  A    between atoms: O_6  and  C_15 
REMARK    7  A    between atoms: O_10  and  C_19 
REMARK    8  A    between atoms: O_11  and  C_20 
REMARK    9  A    between atoms: C_13  and  C_17 
REMARK   10  A    between atoms: C_18  and  C_19 
REMARK   11  A    between atoms: C_19  and  C_20 
ROOT
HETATM    1  O   UNL     1      42.669  46.130  34.745  1.00  0.00    -0.328 OA
HETATM    2  C   UNL     1      41.436  47.012  32.824  1.00  0.00     0.168 C 
HETATM    3  C   UNL     1      42.448  45.957  33.320  1.00  0.00     0.166 C 
HETATM    4  C   UNL     1      40.143  46.932  33.657  1.00  0.00     0.172 C 
HETATM    5  C   UNL     1      40.424  46.982  35.160  1.00  0.00     0.197 C 
HETATM    6  C   UNL     1      41.492  45.937  35.524  1.00  0.00     0.266 C 
ENDROOT
BRANCH   6   7
HETATM    7  O   UNL     1      40.960  44.617  35.350  1.00  0.00    -0.326 OA
BRANCH   7   8
HETATM    8  C   UNL     1      41.479  43.709  36.326  1.00  0.00     0.177 C 
BRANCH   8   9
HETATM    9  C   UNL     1      40.525  42.532  36.529  1.00  0.00     0.170 C 
BRANCH   9  10
HETATM   10  O   UNL     1      40.316  41.857  35.279  1.00  0.00    -0.380 OA
HETATM   11  H   UNL     1      40.218  42.589  34.635  1.00  0.00     0.211 HD
ENDBRANCH   9  10
BRANCH   9  12
HETATM   12  C   UNL     1      39.169  42.998  37.069  1.00  0.00     0.169 C 
BRANCH  12  13
HETATM   13  O   UNL     1      39.316  44.311  37.625  1.00  0.00    -0.380 OA
HETATM   14  H   UNL     1      40.281  44.472  37.586  1.00  0.00     0.211 HD
ENDBRANCH  12  13
ENDBRANCH   9  12
ENDBRANCH   8   9
ENDBRANCH   7   8
ENDBRANCH   6   7
BRANCH   5  15
HETATM   15  O   UNL     1      39.227  46.744  35.922  1.00  0.00    -0.378 OA
HETATM   16  H   UNL     1      39.514  46.704  36.854  1.00  0.00     0.211 HD
ENDBRANCH   5  15
BRANCH   3  17
HETATM   17  C   UNL     1      43.825  46.050  32.670  1.00  0.00     0.178 C 
BRANCH  17  18
HETATM   18  S   UNL     1      43.914  45.162  31.140  1.00  0.00     0.118 S 
HETATM   19  O   UNL     1      43.704  46.217  30.151  1.00  0.00    -0.594 OA
HETATM   20  O   UNL     1      42.827  44.191  31.237  1.00  0.00    -0.594 OA
HETATM   21  O   UNL     1      45.257  44.594  31.160  1.00  0.00    -0.594 OA
ENDBRANCH  17  18
ENDBRANCH   3  17
BRANCH   4  22
HETATM   22  O   UNL     1      39.282  48.019  33.264  1.00  0.00    -0.380 OA
HETATM   23  H   UNL     1      39.590  48.768  33.816  1.00  0.00     0.211 HD
ENDBRANCH   4  22
BRANCH   2  24
HETATM   24  O   UNL     1      41.005  46.893  31.465  1.00  0.00    -0.380 OA
HETATM   25  H   UNL     1      41.612  47.406  30.872  1.00  0.00     0.211 HD
ENDBRANCH   2  24
TORSDOF 11
ENDMDL
MODEL 2
REMARK VINA RESULT:    -4.687      2.759      3.977
REMARK INTER + INTRA:          -8.451
REMARK INTER:                  -7.000
REMARK INTRA:                  -1.451
REMARK UNBOUND:                -1.435
REMARK  11 active torsions:
REMARK  status: ('A' for Active; 'I' for Inactive)
REMARK    1  A    between atoms: S_1  and  C_17 
REMARK    2  A    between atoms: O_3  and  C_16 
REMARK    3  A    between atoms: O_3  and  C_18 
REMARK    4  A    between atoms: O_4  and  C_12 
REMARK    5  A    between atoms: O_5  and  C_14 
REMARK    6  A    between atoms: O_6  and  C_15 
REMARK    7  A    between atoms: O_10  and  C_19 
REMARK    8  A    between atoms: O_11  and  C_20 
REMARK    9  A    between atoms: C_13  and  C_17 
REMARK   10  A    between atoms: C_18  and  C_19 
REMARK   11  A    between atoms: C_19  and  C_20 
ROOT
HETATM    1  O   UNL     1      40.267  46.999  35.944  1.00  0.00    -0.328 OA
HETATM    2  C   UNL     1      41.792  48.279  34.522  1.00  0.00     0.168 C 
HETATM    3  C   UNL     1      41.664  47.336  35.738  1.00  0.00     0.166 C 
HETATM    4  C   UNL     1      41.128  47.639  33.288  1.00  0.00     0.172 C 
HETATM    5  C   UNL     1      39.701  47.173  33.581  1.00  0.00     0.197 C 
HETATM    6  C   UNL     1      39.688  46.300  34.847  1.00  0.00     0.266 C 
ENDROOT
BRANCH   6   7
HETATM    7  O   UNL     1      40.373  45.066  34.593  1.00  0.00    -0.326 OA
BRANCH   7   8
HETATM    8  C   UNL     1      39.592  43.938  35.001  1.00  0.00     0.177 C 
BRANCH   8   9
HETATM    9  C   UNL     1      40.496  42.764  35.375  1.00  0.00     0.170 C 
BRANCH   9  10
HETATM   10  O   UNL     1      39.775  41.531  35.225  1.00  0.00    -0.380 OA
HETATM   11  H   UNL     1      38.836  41.812  35.218  1.00  0.00     0.211 HD
ENDBRANCH   9  10
BRANCH   9  12
HETATM   12  C   UNL     1      40.987  42.874  36.822  1.00  0.00     0.169 C 
BRANCH  12  13
HETATM   13  O   UNL     1      40.898  44.242  37.240  1.00  0.00    -0.380 OA
HETATM   14  H   UNL     1      39.941  44.440  37.185  1.00  0.00     0.211 HD
ENDBRANCH  12  13
ENDBRANCH   9  12
ENDBRANCH   8   9
ENDBRANCH   7   8
ENDBRANCH   6   7
BRANCH   5  15
HETATM   15  O   UNL     1      39.155  46.435  32.472  1.00  0.00    -0.378 OA
HETATM   16  H   UNL     1      39.738  46.633  31.714  1.00  0.00     0.211 HD
ENDBRANCH   5  15
BRANCH   3  17
HETATM   17  C   UNL     1      42.149  47.935  37.054  1.00  0.00     0.178 C 
BRANCH  17  18
HETATM   18  S   UNL     1      43.663  47.208  37.614  1.00  0.00     0.118 S 
HETATM   19  O   UNL     1      43.965  47.988  38.811  1.00  0.00    -0.594 OA
HETATM   20  O   UNL     1      44.583  47.418  36.498  1.00  0.00    -0.594 OA
HETATM   21  O   UNL     1      43.295  45.818  37.861  1.00  0.00    -0.594 OA
ENDBRANCH  17  18
ENDBRANCH   3  17
BRANCH   4  22
HETATM   22  O   UNL     1      41.139  48.601  32.216  1.00  0.00    -0.380 OA
HETATM   23  H   UNL     1      40.846  48.082  31.437  1.00  0.00     0.211 HD
ENDBRANCH   4  22
BRANCH   2  24
HETATM   24  O   UNL     1      43.121  48.599  34.099  1.00  0.00    -0.380 OA
HETATM   25  H   UNL     1      43.649  47.766  33.989  1.00  0.00     0.211 HD
ENDBRANCH   2  24
TORSDOF 11
ENDMDL
MODEL 3
REMARK VINA RESULT:    -4.612      2.336      5.638
REMARK INTER + INTRA:          -8.340
REMARK INTER:                  -6.973
REMARK INTRA:                  -1.367
REMARK UNBOUND:                -1.435
REMARK  11 active torsions:
REMARK  status: ('A' for Active; 'I' for Inactive)
REMARK    1  A    between atoms: S_1  and  C_17 
REMARK    2  A    between atoms: O_3  and  C_16 
REMARK    3  A    between atoms: O_3  and  C_18 
REMARK    4  A    between atoms: O_4  and  C_12 
REMARK    5  A    between atoms: O_5  and  C_14 
REMARK    6  A    between atoms: O_6  and  C_15 
REMARK    7  A    between atoms: O_10  and  C_19 
REMARK    8  A    between atoms: O_11  and  C_20 
REMARK    9  A    between atoms: C_13  and  C_17 
REMARK   10  A    between atoms: C_18  and  C_19 
REMARK   11  A    between atoms: C_19  and  C_20 
ROOT
HETATM    1  O   UNL     1      41.199  44.701  33.112  1.00  0.00    -0.328 OA
HETATM    2  C   UNL     1      39.994  46.187  34.636  1.00  0.00     0.168 C 
HETATM    3  C   UNL     1      40.659  44.806  34.456  1.00  0.00     0.166 C 
HETATM    4  C   UNL     1      40.998  47.303  34.292  1.00  0.00     0.172 C 
HETATM    5  C   UNL     1      41.648  47.088  32.924  1.00  0.00     0.197 C 
HETATM    6  C   UNL     1      42.215  45.661  32.836  1.00  0.00     0.266 C 
ENDROOT
BRANCH   6   7
HETATM    7  O   UNL     1      43.324  45.522  33.735  1.00  0.00    -0.326 OA
BRANCH   7   8
HETATM    8  C   UNL     1      44.432  44.873  33.104  1.00  0.00     0.177 C 
BRANCH   8   9
HETATM    9  C   UNL     1      45.504  45.892  32.717  1.00  0.00     0.170 C 
BRANCH   9  10
HETATM   10  O   UNL     1      45.324  47.097  33.478  1.00  0.00    -0.380 OA
HETATM   11  H   UNL     1      45.998  47.025  34.187  1.00  0.00     0.211 HD
ENDBRANCH   9  10
BRANCH   9  12
HETATM   12  C   UNL     1      45.437  46.237  31.226  1.00  0.00     0.169 C 
BRANCH  12  13
HETATM   13  O   UNL     1      45.003  47.596  31.083  1.00  0.00    -0.380 OA
HETATM   14  H   UNL     1      45.716  48.113  31.510  1.00  0.00     0.211 HD
ENDBRANCH  12  13
ENDBRANCH   9  12
ENDBRANCH   8   9
ENDBRANCH   7   8
ENDBRANCH   6   7
BRANCH   5  15
HETATM   15  O   UNL     1      42.697  48.045  32.689  1.00  0.00    -0.378 OA
HETATM   16  H   UNL     1      43.438  47.767  33.260  1.00  0.00     0.211 HD
ENDBRANCH   5  15
BRANCH   3  17
HETATM   17  C   UNL     1      39.710  43.622  34.619  1.00  0.00     0.178 C 
BRANCH  17  18
HETATM   18  S   UNL     1      39.868  42.839  36.199  1.00  0.00     0.118 S 
HETATM   19  O   UNL     1      41.280  43.042  36.511  1.00  0.00    -0.594 OA
HETATM   20  O   UNL     1      39.491  41.452  35.939  1.00  0.00    -0.594 OA
HETATM   21  O   UNL     1      38.938  43.588  37.037  1.00  0.00    -0.594 OA
ENDBRANCH  17  18
ENDBRANCH   3  17
BRANCH   4  22
HETATM   22  O   UNL     1      40.305  48.566  34.332  1.00  0.00    -0.380 OA
HETATM   23  H   UNL     1      39.432  48.362  33.935  1.00  0.00     0.211 HD
ENDBRANCH   4  22
BRANCH   2  24
HETATM   24  O   UNL     1      39.530  46.504  35.952  1.00  0.00    -0.380 OA
HETATM   25  H   UNL     1      39.921  45.871  36.609  1.00  0.00     0.211 HD
ENDBRANCH   2  24
TORSDOF 11
ENDMDL
MODEL 4
REMARK VINA RESULT:    -4.531      1.690      2.111
REMARK INTER + INTRA:          -8.217
REMARK INTER:                  -7.218
REMARK INTRA:                  -0.999
REMARK UNBOUND:                -1.435
REMARK  11 active torsions:
REMARK  status: ('A' for Active; 'I' for Inactive)
REMARK    1  A    between atoms: S_1  and  C_17 
REMARK    2  A    between atoms: O_3  and  C_16 
REMARK    3  A    between atoms: O_3  and  C_18 
REMARK    4  A    between atoms: O_4  and  C_12 
REMARK    5  A    between atoms: O_5  and  C_14 
REMARK    6  A    between atoms: O_6  and  C_15 
REMARK    7  A    between atoms: O_10  and  C_19 
REMARK    8  A    between atoms: O_11  and  C_20 
REMARK    9  A    between atoms: C_13  and  C_17 
REMARK   10  A    between atoms: C_18  and  C_19 
REMARK   11  A    between atoms: C_19  and  C_20 
ROOT
HETATM    1  O   UNL     1      43.861  46.440  34.330  1.00  0.00    -0.328 OA
HETATM    2  C   UNL     1      43.207  47.644  32.304  1.00  0.00     0.168 C 
HETATM    3  C   UNL     1      44.090  46.527  32.899  1.00  0.00     0.166 C 
HETATM    4  C   UNL     1      41.732  47.401  32.673  1.00  0.00     0.172 C 
HETATM    5  C   UNL     1      41.545  47.179  34.175  1.00  0.00     0.197 C 
HETATM    6  C   UNL     1      42.520  46.096  34.666  1.00  0.00     0.266 C 
ENDROOT
BRANCH   6   7
HETATM    7  O   UNL     1      42.152  44.825  34.114  1.00  0.00    -0.326 OA
BRANCH   7   8
HETATM    8  C   UNL     1      41.829  43.881  35.140  1.00  0.00     0.177 C 
BRANCH   8   9
HETATM    9  C   UNL     1      40.553  43.117  34.788  1.00  0.00     0.170 C 
BRANCH   9  10
HETATM   10  O   UNL     1      39.607  44.009  34.180  1.00  0.00    -0.380 OA
HETATM   11  H   UNL     1      38.983  44.215  34.907  1.00  0.00     0.211 HD
ENDBRANCH   9  10
BRANCH   9  12
HETATM   12  C   UNL     1      39.913  42.494  36.033  1.00  0.00     0.169 C 
BRANCH  12  13
HETATM   13  O   UNL     1      39.550  41.138  35.740  1.00  0.00    -0.380 OA
HETATM   14  H   UNL     1      38.969  40.887  36.487  1.00  0.00     0.211 HD
ENDBRANCH  12  13
ENDBRANCH   9  12
ENDBRANCH   8   9
ENDBRANCH   7   8
ENDBRANCH   6   7
BRANCH   5  15
HETATM   15  O   UNL     1      40.192  46.794  34.480  1.00  0.00    -0.378 OA
HETATM   16  H   UNL     1      39.629  47.310  33.871  1.00  0.00     0.211 HD
ENDBRANCH   5  15
BRANCH   3  17
HETATM   17  C   UNL     1      45.590  46.750  32.729  1.00  0.00     0.178 C 
BRANCH  17  18
HETATM   18  S   UNL     1      46.237  45.940  31.294  1.00  0.00     0.118 S 
HETATM   19  O   UNL     1      46.071  46.955  30.257  1.00  0.00    -0.594 OA
HETATM   20  O   UNL     1      45.383  44.764  31.142  1.00  0.00    -0.594 OA
HETATM   21  O   UNL     1      47.620  45.658  31.664  1.00  0.00    -0.594 OA
ENDBRANCH  17  18
ENDBRANCH   3  17
BRANCH   4  22
HETATM   22  O   UNL     1      40.959  48.532  32.226  1.00  0.00    -0.380 OA
HETATM   23  H   UNL     1      40.930  48.421  31.252  1.00  0.00     0.211 HD
ENDBRANCH   4  22
BRANCH   2  24
HETATM   24  O   UNL     1      43.213  47.771  30.878  1.00  0.00    -0.380 OA
HETATM   25  H   UNL     1      42.928  46.916  30.463  1.00  0.00     0.211 HD
ENDBRANCH   2  24
TORSDOF 11
ENDMDL
MODEL 5
REMARK VINA RESULT:    -4.478      2.487      5.801
REMARK INTER + INTRA:          -8.138
REMARK INTER:                  -6.703
REMARK INTRA:                  -1.435
REMARK UNBOUND:                -1.435
REMARK  11 active torsions:
REMARK  status: ('A' for Active; 'I' for Inactive)
REMARK    1  A    between atoms: S_1  and  C_17 
REMARK    2  A    between atoms: O_3  and  C_16 
REMARK    3  A    between atoms: O_3  and  C_18 
REMARK    4  A    between atoms: O_4  and  C_12 
REMARK    5  A    between atoms: O_5  and  C_14 
REMARK    6  A    between atoms: O_6  and  C_15 
REMARK    7  A    between atoms: O_10  and  C_19 
REMARK    8  A    between atoms: O_11  and  C_20 
REMARK    9  A    between atoms: C_13  and  C_17 
REMARK   10  A    between atoms: C_18  and  C_19 
REMARK   11  A    between atoms: C_19  and  C_20 
ROOT
HETATM    1  O   UNL     1      42.295  45.260  33.359  1.00  0.00    -0.328 OA
HETATM    2  C   UNL     1      40.191  45.834  34.469  1.00  0.00     0.168 C 
HETATM    3  C   UNL     1      41.581  45.179  34.621  1.00  0.00     0.166 C 
HETATM    4  C   UNL     1      40.344  47.275  33.944  1.00  0.00     0.172 C 
HETATM    5  C   UNL     1      41.215  47.338  32.688  1.00  0.00     0.197 C 
HETATM    6  C   UNL     1      42.540  46.598  32.936  1.00  0.00     0.266 C 
ENDROOT
BRANCH   6   7
HETATM    7  O   UNL     1      43.325  47.316  33.897  1.00  0.00    -0.326 OA
BRANCH   7   8
HETATM    8  C   UNL     1      44.616  47.648  33.378  1.00  0.00     0.177 C 
BRANCH   8   9
HETATM    9  C   UNL     1      44.805  49.164  33.331  1.00  0.00     0.170 C 
BRANCH   9  10
HETATM   10  O   UNL     1      43.671  49.811  33.930  1.00  0.00    -0.380 OA
HETATM   11  H   UNL     1      44.072  50.420  34.585  1.00  0.00     0.211 HD
ENDBRANCH   9  10
BRANCH   9  12
HETATM   12  C   UNL     1      44.955  49.666  31.892  1.00  0.00     0.169 C 
BRANCH  12  13
HETATM   13  O   UNL     1      44.195  48.817  31.022  1.00  0.00    -0.380 OA
HETATM   14  H   UNL     1      43.876  48.105  31.614  1.00  0.00     0.211 HD
ENDBRANCH  12  13
ENDBRANCH   9  12
ENDBRANCH   8   9
ENDBRANCH   7   8
ENDBRANCH   6   7
BRANCH   5  15
HETATM   15  O   UNL     1      41.480  48.701  32.307  1.00  0.00    -0.378 OA
HETATM   16  H   UNL     1      41.048  49.252  32.987  1.00  0.00     0.211 HD
ENDBRANCH   5  15
BRANCH   3  17
HETATM   17  C   UNL     1      41.543  43.698  34.985  1.00  0.00     0.178 C 
BRANCH  17  18
HETATM   18  S   UNL     1      41.329  43.432  36.723  1.00  0.00     0.118 S 
HETATM   19  O   UNL     1      39.899  43.154  36.825  1.00  0.00    -0.594 OA
HETATM   20  O   UNL     1      41.750  44.696  37.323  1.00  0.00    -0.594 OA
HETATM   21  O   UNL     1      42.200  42.295  36.997  1.00  0.00    -0.594 OA
ENDBRANCH  17  18
ENDBRANCH   3  17
BRANCH   4  22
HETATM   22  O   UNL     1      39.030  47.803  33.679  1.00  0.00    -0.380 OA
HETATM   23  H   UNL     1      38.449  47.015  33.737  1.00  0.00     0.211 HD
ENDBRANCH   4  22
BRANCH   2  24
HETATM   24  O   UNL     1      39.411  45.959  35.662  1.00  0.00    -0.380 OA
HETATM   25  H   UNL     1      40.008  46.000  36.453  1.00  0.00     0.211 HD
ENDBRANCH   2  24
TORSDOF 11
ENDMDL
MODEL 6
REMARK VINA RESULT:    -4.460      1.498      2.008
REMARK INTER + INTRA:          -8.111
REMARK INTER:                  -6.658
REMARK INTRA:                  -1.453
REMARK UNBOUND:                -1.435
REMARK  11 active torsions:
REMARK  status: ('A' for Active; 'I' for Inactive)
REMARK    1  A    between atoms: S_1  and  C_17 
REMARK    2  A    between atoms: O_3  and  C_16 
REMARK    3  A    between atoms: O_3  and  C_18 
REMARK    4  A    between atoms: O_4  and  C_12 
REMARK    5  A    between atoms: O_5  and  C_14 
REMARK    6  A    between atoms: O_6  and  C_15 
REMARK    7  A    between atoms: O_10  and  C_19 
REMARK    8  A    between atoms: O_11  and  C_20 
REMARK    9  A    between atoms: C_13  and  C_17 
REMARK   10  A    between atoms: C_18  and  C_19 
REMARK   11  A    between atoms: C_19  and  C_20 
ROOT
HETATM    1  O   UNL     1      42.485  45.630  34.435  1.00  0.00    -0.328 OA
HETATM    2  C   UNL     1      42.260  46.858  32.332  1.00  0.00     0.168 C 
HETATM    3  C   UNL     1      42.741  45.556  33.008  1.00  0.00     0.166 C 
HETATM    4  C   UNL     1      40.780  47.113  32.675  1.00  0.00     0.172 C 
HETATM    5  C   UNL     1      40.521  47.049  34.181  1.00  0.00     0.197 C 
HETATM    6  C   UNL     1      41.101  45.745  34.754  1.00  0.00     0.266 C 
ENDROOT
BRANCH   6   7
HETATM    7  O   UNL     1      40.355  44.623  34.261  1.00  0.00    -0.326 OA
BRANCH   7   8
HETATM    8  C   UNL     1      39.957  43.751  35.322  1.00  0.00     0.177 C 
BRANCH   8   9
HETATM    9  C   UNL     1      40.436  42.324  35.056  1.00  0.00     0.170 C 
BRANCH   9  10
HETATM   10  O   UNL     1      39.442  41.388  35.503  1.00  0.00    -0.380 OA
HETATM   11  H   UNL     1      38.660  41.602  34.953  1.00  0.00     0.211 HD
ENDBRANCH   9  10
BRANCH   9  12
HETATM   12  C   UNL     1      41.752  42.030  35.783  1.00  0.00     0.169 C 
BRANCH  12  13
HETATM   13  O   UNL     1      42.808  42.760  35.146  1.00  0.00    -0.380 OA
HETATM   14  H   UNL     1      43.092  43.401  35.830  1.00  0.00     0.211 HD
ENDBRANCH  12  13
ENDBRANCH   9  12
ENDBRANCH   8   9
ENDBRANCH   7   8
ENDBRANCH   6   7
BRANCH   5  15
HETATM   15  O   UNL     1      39.113  47.127  34.471  1.00  0.00    -0.378 OA
HETATM   16  H   UNL     1      38.991  46.639  35.308  1.00  0.00     0.211 HD
ENDBRANCH   5  15
BRANCH   3  17
HETATM   17  C   UNL     1      44.236  45.287  32.865  1.00  0.00     0.178 C 
BRANCH  17  18
HETATM   18  S   UNL     1      44.576  43.657  32.262  1.00  0.00     0.118 S 
HETATM   19  O   UNL     1      43.237  43.114  32.048  1.00  0.00    -0.594 OA
HETATM   20  O   UNL     1      45.323  43.032  33.351  1.00  0.00    -0.594 OA
HETATM   21  O   UNL     1      45.343  43.905  31.046  1.00  0.00    -0.594 OA
ENDBRANCH  17  18
ENDBRANCH   3  17
BRANCH   4  22
HETATM   22  O   UNL     1      40.407  48.401  32.149  1.00  0.00    -0.380 OA
HETATM   23  H   UNL     1      41.201  48.684  31.647  1.00  0.00     0.211 HD
ENDBRANCH   4  22
BRANCH   2  24
HETATM   24  O   UNL     1      42.316  46.892  30.902  1.00  0.00    -0.380 OA
HETATM   25  H   UNL     1      42.941  46.196  30.573  1.00  0.00     0.211 HD
ENDBRANCH   2  24
TORSDOF 11
ENDMDL
MODEL 7
REMARK VINA RESULT:    -4.402      3.318      6.174
REMARK INTER + INTRA:          -8.024
REMARK INTER:                  -6.697
REMARK INTRA:                  -1.327
REMARK UNBOUND:                -1.435
REMARK  11 active torsions:
REMARK  status: ('A' for Active; 'I' for Inactive)
REMARK    1  A    between atoms: S_1  and  C_17 
REMARK    2  A    between atoms: O_3  and  C_16 
REMARK    3  A    between atoms: O_3  and  C_18 
REMARK    4  A    between atoms: O_4  and  C_12 
REMARK    5  A    between atoms: O_5  and  C_14 
REMARK    6  A    between atoms: O_6  and  C_15 
REMARK    7  A    between atoms: O_10  and  C_19 
REMARK    8  A    between atoms: O_11  and  C_20 
REMARK    9  A    between atoms: C_13  and  C_17 
REMARK   10  A    between atoms: C_18  and  C_19 
REMARK   11  A    between atoms: C_19  and  C_20 
ROOT
HETATM    1  O   UNL     1      42.051  43.912  35.942  1.00  0.00    -0.328 OA
HETATM    2  C   UNL     1      40.220  42.293  36.051  1.00  0.00     0.168 C 
HETATM    3  C   UNL     1      41.243  43.123  36.855  1.00  0.00     0.166 C 
HETATM    4  C   UNL     1      39.389  43.219  35.143  1.00  0.00     0.172 C 
HETATM    5  C   UNL     1      40.273  44.132  34.291  1.00  0.00     0.197 C 
HETATM    6  C   UNL     1      41.293  44.853  35.189  1.00  0.00     0.266 C 
ENDROOT
BRANCH   6   7
HETATM    7  O   UNL     1      40.615  45.784  36.044  1.00  0.00    -0.326 OA
BRANCH   7   8
HETATM    8  C   UNL     1      41.388  46.971  36.245  1.00  0.00     0.177 C 
BRANCH   8   9
HETATM    9  C   UNL     1      42.205  47.300  34.996  1.00  0.00     0.170 C 
BRANCH   9  10
HETATM   10  O   UNL     1      43.499  47.792  35.379  1.00  0.00    -0.380 OA
HETATM   11  H   UNL     1      44.105  47.382  34.727  1.00  0.00     0.211 HD
ENDBRANCH   9  10
BRANCH   9  12
HETATM   12  C   UNL     1      41.510  48.360  34.135  1.00  0.00     0.169 C 
BRANCH  12  13
HETATM   13  O   UNL     1      40.091  48.208  34.266  1.00  0.00    -0.380 OA
HETATM   14  H   UNL     1      39.869  47.522  33.604  1.00  0.00     0.211 HD
ENDBRANCH  12  13
ENDBRANCH   9  12
ENDBRANCH   8   9
ENDBRANCH   7   8
ENDBRANCH   6   7
BRANCH   5  15
HETATM   15  O   UNL     1      39.485  45.098  33.572  1.00  0.00    -0.378 OA
HETATM   16  H   UNL     1      40.125  45.738  33.206  1.00  0.00     0.211 HD
ENDBRANCH   5  15
BRANCH   3  17
HETATM   17  C   UNL     1      42.227  42.292  37.673  1.00  0.00     0.178 C 
BRANCH  17  18
HETATM   18  S   UNL     1      41.571  41.822  39.249  1.00  0.00     0.118 S 
HETATM   19  O   UNL     1      42.737  41.934  40.121  1.00  0.00    -0.594 OA
HETATM   20  O   UNL     1      41.096  40.457  39.035  1.00  0.00    -0.594 OA
HETATM   21  O   UNL     1      40.527  42.812  39.486  1.00  0.00    -0.594 OA
ENDBRANCH  17  18
ENDBRANCH   3  17
BRANCH   4  22
HETATM   22  O   UNL     1      38.549  42.400  34.306  1.00  0.00    -0.380 OA
HETATM   23  H   UNL     1      37.658  42.504  34.703  1.00  0.00     0.211 HD
ENDBRANCH   4  22
BRANCH   2  24
HETATM   24  O   UNL     1      39.253  41.561  36.811  1.00  0.00    -0.380 OA
HETATM   25  H   UNL     1      38.611  41.117  36.200  1.00  0.00     0.211 HD
ENDBRANCH   2  24
TORSDOF 11
ENDMDL
MODEL 8
REMARK VINA RESULT:    -4.132      2.350      3.781
REMARK INTER + INTRA:          -7.620
REMARK INTER:                  -6.181
REMARK INTRA:                  -1.439
REMARK UNBOUND:                -1.435
REMARK  11 active torsions:
REMARK  status: ('A' for Active; 'I' for Inactive)
REMARK    1  A    between atoms: S_1  and  C_17 
REMARK    2  A    between atoms: O_3  and  C_16 
REMARK    3  A    between atoms: O_3  and  C_18 
REMARK    4  A    between atoms: O_4  and  C_12 
REMARK    5  A    between atoms: O_5  and  C_14 
REMARK    6  A    between atoms: O_6  and  C_15 
REMARK    7  A    between atoms: O_10  and  C_19 
REMARK    8  A    between atoms: O_11  and  C_20 
REMARK    9  A    between atoms: C_13  and  C_17 
REMARK   10  A    between atoms: C_18  and  C_19 
REMARK   11  A    between atoms: C_19  and  C_20 
ROOT
HETATM    1  O   UNL     1      42.848  46.063  34.510  1.00  0.00    -0.328 OA
HETATM    2  C   UNL     1      41.560  47.808  33.377  1.00  0.00     0.168 C 
HETATM    3  C   UNL     1      42.888  47.022  33.420  1.00  0.00     0.166 C 
HETATM    4  C   UNL     1      40.373  46.830  33.288  1.00  0.00     0.172 C 
HETATM    5  C   UNL     1      40.436  45.752  34.371  1.00  0.00     0.197 C 
HETATM    6  C   UNL     1      41.823  45.086  34.363  1.00  0.00     0.266 C 
ENDROOT
BRANCH   6   7
HETATM    7  O   UNL     1      41.990  44.328  33.158  1.00  0.00    -0.326 OA
BRANCH   7   8
HETATM    8  C   UNL     1      42.829  43.188  33.367  1.00  0.00     0.177 C 
BRANCH   8   9
HETATM    9  C   UNL     1      43.697  42.924  32.137  1.00  0.00     0.170 C 
BRANCH   9  10
HETATM   10  O   UNL     1      44.578  41.819  32.394  1.00  0.00    -0.380 OA
HETATM   11  H   UNL     1      44.384  41.194  31.663  1.00  0.00     0.211 HD
ENDBRANCH   9  10
BRANCH   9  12
HETATM   12  C   UNL     1      44.539  44.150  31.772  1.00  0.00     0.169 C 
BRANCH  12  13
HETATM   13  O   UNL     1      43.819  44.941  30.818  1.00  0.00    -0.380 OA
HETATM   14  H   UNL     1      42.893  44.641  30.920  1.00  0.00     0.211 HD
ENDBRANCH  12  13
ENDBRANCH   9  12
ENDBRANCH   8   9
ENDBRANCH   7   8
ENDBRANCH   6   7
BRANCH   5  15
HETATM   15  O   UNL     1      39.415  44.757  34.176  1.00  0.00    -0.378 OA
HETATM   16  H   UNL     1      38.761  45.166  33.577  1.00  0.00     0.211 HD
ENDBRANCH   5  15
BRANCH   3  17
HETATM   17  C   UNL     1      44.123  47.883  33.665  1.00  0.00     0.178 C 
BRANCH  17  18
HETATM   18  S   UNL     1      44.739  48.626  32.180  1.00  0.00     0.118 S 
HETATM   19  O   UNL     1      44.206  49.983  32.263  1.00  0.00    -0.594 OA
HETATM   20  O   UNL     1      44.163  47.806  31.117  1.00  0.00    -0.594 OA
HETATM   21  O   UNL     1      46.186  48.521  32.329  1.00  0.00    -0.594 OA
ENDBRANCH  17  18
ENDBRANCH   3  17
BRANCH   4  22
HETATM   22  O   UNL     1      39.152  47.587  33.394  1.00  0.00    -0.380 OA
HETATM   23  H   UNL     1      38.477  46.990  33.008  1.00  0.00     0.211 HD
ENDBRANCH   4  22
BRANCH   2  24
HETATM   24  O   UNL     1      41.383  48.701  32.273  1.00  0.00    -0.380 OA
HETATM   25  H   UNL     1      42.129  48.593  31.629  1.00  0.00     0.211 HD
ENDBRANCH   2  24
TORSDOF 11
ENDMDL
MODEL 9
REMARK VINA RESULT:    -3.972      2.553      4.437
REMARK INTER + INTRA:          -7.381
REMARK INTER:                  -5.783
REMARK INTRA:                  -1.598
REMARK UNBOUND:                -1.435
REMARK  11 active torsions:
REMARK  status: ('A' for Active; 'I' for Inactive)
REMARK    1  A    between atoms: S_1  and  C_17 
REMARK    2  A    between atoms: O_3  and  C_16 
REMARK    3  A    between atoms: O_3  and  C_18 
REMARK    4  A    between atoms: O_4  and  C_12 
REMARK    5  A    between atoms: O_5  and  C_14 
REMARK    6  A    between atoms: O_6  and  C_15 
REMARK    7  A    between atoms: O_10  and  C_19 
REMARK    8  A    between atoms: O_11  and  C_20 
REMARK    9  A    between atoms: C_13  and  C_17 
REMARK   10  A    between atoms: C_18  and  C_19 
REMARK   11  A    between atoms: C_19  and  C_20 
ROOT
HETATM    1  O   UNL     1      42.794  45.313  33.434  1.00  0.00    -0.328 OA
HETATM    2  C   UNL     1      40.394  44.843  33.411  1.00  0.00     0.168 C 
HETATM    3  C   UNL     1      41.727  44.654  34.166  1.00  0.00     0.166 C 
HETATM    4  C   UNL     1      40.134  46.342  33.169  1.00  0.00     0.172 C 
HETATM    5  C   UNL     1      41.333  47.034  32.518  1.00  0.00     0.197 C 
HETATM    6  C   UNL     1      42.610  46.721  33.316  1.00  0.00     0.266 C 
ENDROOT
BRANCH   6   7
HETATM    7  O   UNL     1      42.546  47.351  34.602  1.00  0.00    -0.326 OA
BRANCH   7   8
HETATM    8  C   UNL     1      43.831  47.822  35.020  1.00  0.00     0.177 C 
BRANCH   8   9
HETATM    9  C   UNL     1      44.302  47.069  36.264  1.00  0.00     0.170 C 
BRANCH   9  10
HETATM   10  O   UNL     1      44.636  45.717  35.915  1.00  0.00    -0.380 OA
HETATM   11  H   UNL     1      45.324  45.820  35.225  1.00  0.00     0.211 HD
ENDBRANCH   9  10
BRANCH   9  12
HETATM   12  C   UNL     1      43.219  47.045  37.347  1.00  0.00     0.169 C 
BRANCH  12  13
HETATM   13  O   UNL     1      42.483  45.820  37.241  1.00  0.00    -0.380 OA
HETATM   14  H   UNL     1      43.067  45.244  36.706  1.00  0.00     0.211 HD
ENDBRANCH  12  13
ENDBRANCH   9  12
ENDBRANCH   8   9
ENDBRANCH   7   8
ENDBRANCH   6   7
BRANCH   5  15
HETATM   15  O   UNL     1      41.137  48.458  32.447  1.00  0.00    -0.378 OA
HETATM   16  H   UNL     1      40.538  48.677  33.187  1.00  0.00     0.211 HD
ENDBRANCH   5  15
BRANCH   3  17
HETATM   17  C   UNL     1      42.163  43.201  34.322  1.00  0.00     0.178 C 
BRANCH  17  18
HETATM   18  S   UNL     1      41.372  42.399  35.688  1.00  0.00     0.118 S 
HETATM   19  O   UNL     1      40.346  41.594  35.030  1.00  0.00    -0.594 OA
HETATM   20  O   UNL     1      40.859  43.505  36.492  1.00  0.00    -0.594 OA
HETATM   21  O   UNL     1      42.454  41.636  36.300  1.00  0.00    -0.594 OA
ENDBRANCH  17  18
ENDBRANCH   3  17
BRANCH   4  22
HETATM   22  O   UNL     1      38.961  46.471  32.342  1.00  0.00    -0.380 OA
HETATM   23  H   UNL     1      38.355  47.017  32.886  1.00  0.00     0.211 HD
ENDBRANCH   4  22
BRANCH   2  24
HETATM   24  O   UNL     1      39.215  44.368  34.070  1.00  0.00    -0.380 OA
HETATM   25  H   UNL     1      39.404  44.220  35.032  1.00  0.00     0.211 HD
ENDBRANCH   2  24
TORSDOF 11
ENDMDL
MODEL 10
REMARK VINA RESULT:    -3.961      2.568      4.467
REMARK INTER + INTRA:          -7.364
REMARK INTER:                  -5.517
REMARK INTRA:                  -1.847
REMARK UNBOUND:                -1.435
REMARK  11 active torsions:
REMARK  status: ('A' for Active; 'I' for Inactive)
REMARK    1  A    between atoms: S_1  and  C_17 
REMARK    2  A    between atoms: O_3  and  C_16 
REMARK    3  A    between atoms: O_3  and  C_18 
REMARK    4  A    between atoms: O_4  and  C_12 
REMARK    5  A    between atoms: O_5  and  C_14 
REMARK    6  A    between atoms: O_6  and  C_15 
REMARK    7  A    between atoms: O_10  and  C_19 
REMARK    8  A    between atoms: O_11  and  C_20 
REMARK    9  A    between atoms: C_13  and  C_17 
REMARK   10  A    between atoms: C_18  and  C_19 
REMARK   11  A    between atoms: C_19  and  C_20 
ROOT
HETATM    1  O   UNL     1      42.434  44.924  33.744  1.00  0.00    -0.328 OA
HETATM    2  C   UNL     1      40.471  46.177  34.495  1.00  0.00     0.168 C 
HETATM    3  C   UNL     1      41.312  44.894  34.666  1.00  0.00     0.166 C 
HETATM    4  C   UNL     1      41.367  47.419  34.662  1.00  0.00     0.172 C 
HETATM    5  C   UNL     1      42.610  47.354  33.774  1.00  0.00     0.197 C 
HETATM    6  C   UNL     1      43.327  46.008  33.980  1.00  0.00     0.266 C 
ENDROOT
BRANCH   6   7
HETATM    7  O   UNL     1      43.883  45.952  35.300  1.00  0.00    -0.326 OA
BRANCH   7   8
HETATM    8  C   UNL     1      45.133  45.256  35.313  1.00  0.00     0.177 C 
BRANCH   8   9
HETATM    9  C   UNL     1      45.035  43.987  36.161  1.00  0.00     0.170 C 
BRANCH   9  10
HETATM   10  O   UNL     1      44.199  43.026  35.499  1.00  0.00    -0.380 OA
HETATM   11  H   UNL     1      44.806  42.278  35.318  1.00  0.00     0.211 HD
ENDBRANCH   9  10
BRANCH   9  12
HETATM   12  C   UNL     1      44.446  44.283  37.544  1.00  0.00     0.169 C 
BRANCH  12  13
HETATM   13  O   UNL     1      43.020  44.156  37.478  1.00  0.00    -0.380 OA
HETATM   14  H   UNL     1      42.710  44.602  38.293  1.00  0.00     0.211 HD
ENDBRANCH  12  13
ENDBRANCH   9  12
ENDBRANCH   8   9
ENDBRANCH   7   8
ENDBRANCH   6   7
BRANCH   5  15
HETATM   15  O   UNL     1      43.513  48.438  34.061  1.00  0.00    -0.378 OA
HETATM   16  H   UNL     1      43.054  48.994  34.718  1.00  0.00     0.211 HD
ENDBRANCH   5  15
BRANCH   3  17
HETATM   17  C   UNL     1      40.559  43.602  34.365  1.00  0.00     0.178 C 
BRANCH  17  18
HETATM   18  S   UNL     1      40.373  42.576  35.797  1.00  0.00     0.118 S 
HETATM   19  O   UNL     1      39.881  43.519  36.798  1.00  0.00    -0.594 OA
HETATM   20  O   UNL     1      41.723  42.073  36.042  1.00  0.00    -0.594 OA
HETATM   21  O   UNL     1      39.406  41.573  35.366  1.00  0.00    -0.594 OA
ENDBRANCH  17  18
ENDBRANCH   3  17
BRANCH   4  22
HETATM   22  O   UNL     1      40.584  48.589  34.356  1.00  0.00    -0.380 OA
HETATM   23  H   UNL     1      40.119  48.782  35.197  1.00  0.00     0.211 HD
ENDBRANCH   4  22
BRANCH   2  24
HETATM   24  O   UNL     1      39.401  46.368  35.426  1.00  0.00    -0.380 OA
HETATM   25  H   UNL     1      39.013  47.274  35.312  1.00  0.00     0.211 HD
ENDBRANCH   2  24
TORSDOF 11
ENDMDL
