MODEL 1
REMARK VINA RESULT:    -4.878      0.000      0.000
REMARK INTER + INTRA:          -8.565
REMARK INTER:                  -6.760
REMARK INTRA:                  -1.805
REMARK UNBOUND:                -1.264
REMARK  11 active torsions:
REMARK  status: ('A' for Active; 'I' for Inactive)
REMARK    1  A    between atoms: S_1  and  C_17 
REMARK    2  A    between atoms: O_3  and  C_16 
REMARK    3  A    between atoms: O_3  and  C_18 
REMARK    4  A    between atoms: O_4  and  C_12 
REMARK    5  A    between atoms: O_5  and  C_14 
REMARK    6  A    between atoms: O_6  and  C_15 
REMARK    7  A    between atoms: O_10  and  C_19 
REMARK    8  A    between atoms: O_11  and  C_20 
REMARK    9  A    between atoms: C_13  and  C_17 
REMARK   10  A    between atoms: C_18  and  C_19 
REMARK   11  A    between atoms: C_19  and  C_20 
ROOT
HETATM    1  O   UNL     1      42.409  44.733  35.439  1.00  0.00    -0.328 OA
HETATM    2  C   UNL     1      42.875  42.594  34.347  1.00  0.00     0.168 C 
HETATM    3  C   UNL     1      41.823  43.454  35.079  1.00  0.00     0.166 C 
HETATM    4  C   UNL     1      43.440  43.368  33.141  1.00  0.00     0.172 C 
HETATM    5  C   UNL     1      43.926  44.765  33.533  1.00  0.00     0.197 C 
HETATM    6  C   UNL     1      42.823  45.500  34.312  1.00  0.00     0.266 C 
ENDROOT
BRANCH   6   7
HETATM    7  O   UNL     1      41.721  45.786  33.441  1.00  0.00    -0.326 OA
BRANCH   7   8
HETATM    8  C   UNL     1      41.167  47.080  33.702  1.00  0.00     0.177 C 
BRANCH   8   9
HETATM    9  C   UNL     1      39.721  46.960  34.183  1.00  0.00     0.170 C 
BRANCH   9  10
HETATM   10  O   UNL     1      39.683  46.249  35.430  1.00  0.00    -0.380 OA
HETATM   11  H   UNL     1      40.626  46.191  35.692  1.00  0.00     0.211 HD
ENDBRANCH   9  10
BRANCH   9  12
HETATM   12  C   UNL     1      38.852  46.216  33.164  1.00  0.00     0.169 C 
BRANCH  12  13
HETATM   13  O   UNL     1      39.114  44.810  33.270  1.00  0.00    -0.380 OA
HETATM   14  H   UNL     1      38.360  44.473  33.796  1.00  0.00     0.211 HD
ENDBRANCH  12  13
ENDBRANCH   9  12
ENDBRANCH   8   9
ENDBRANCH   7   8
ENDBRANCH   6   7
BRANCH   5  15
HETATM   15  O   UNL     1      44.299  45.531  32.373  1.00  0.00    -0.378 OA
HETATM   16  H   UNL     1      43.530  45.491  31.774  1.00  0.00     0.211 HD
ENDBRANCH   5  15
BRANCH   3  17
HETATM   17  C   UNL     1      41.309  42.849  36.382  1.00  0.00     0.178 C 
BRANCH  17  18
HETATM   18  S   UNL     1      39.639  42.272  36.249  1.00  0.00     0.118 S 
HETATM   19  O   UNL     1      38.897  43.509  36.019  1.00  0.00    -0.594 OA
HETATM   20  O   UNL     1      39.387  41.639  37.541  1.00  0.00    -0.594 OA
HETATM   21  O   UNL     1      39.690  41.362  35.111  1.00  0.00    -0.594 OA
ENDBRANCH  17  18
ENDBRANCH   3  17
BRANCH   4  22
HETATM   22  O   UNL     1      44.515  42.597  32.570  1.00  0.00    -0.380 OA
HETATM   23  H   UNL     1      44.141  41.693  32.505  1.00  0.00     0.211 HD
ENDBRANCH   4  22
BRANCH   2  24
HETATM   24  O   UNL     1      42.416  41.352  33.803  1.00  0.00    -0.380 OA
HETATM   25  H   UNL     1      43.192  40.778  33.573  1.00  0.00     0.211 HD
ENDBRANCH   2  24
TORSDOF 11
ENDMDL
MODEL 2
REMARK VINA RESULT:    -4.870      2.595      5.478
REMARK INTER + INTRA:          -8.553
REMARK INTER:                  -7.289
REMARK INTRA:                  -1.264
REMARK UNBOUND:                -1.264
REMARK  11 active torsions:
REMARK  status: ('A' for Active; 'I' for Inactive)
REMARK    1  A    between atoms: S_1  and  C_17 
REMARK    2  A    between atoms: O_3  and  C_16 
REMARK    3  A    between atoms: O_3  and  C_18 
REMARK    4  A    between atoms: O_4  and  C_12 
REMARK    5  A    between atoms: O_5  and  C_14 
REMARK    6  A    between atoms: O_6  and  C_15 
REMARK    7  A    between atoms: O_10  and  C_19 
REMARK    8  A    between atoms: O_11  and  C_20 
REMARK    9  A    between atoms: C_13  and  C_17 
REMARK   10  A    between atoms: C_18  and  C_19 
REMARK   11  A    between atoms: C_19  and  C_20 
ROOT
HETATM    1  O   UNL     1      42.704  46.273  34.779  1.00  0.00    -0.328 OA
HETATM    2  C   UNL     1      41.413  47.047  32.850  1.00  0.00     0.168 C 
HETATM    3  C   UNL     1      42.481  46.056  33.361  1.00  0.00     0.166 C 
HETATM    4  C   UNL     1      40.133  46.922  33.697  1.00  0.00     0.172 C 
HETATM    5  C   UNL     1      40.423  47.021  35.195  1.00  0.00     0.197 C 
HETATM    6  C   UNL     1      41.546  46.039  35.573  1.00  0.00     0.266 C 
ENDROOT
BRANCH   6   7
HETATM    7  O   UNL     1      41.079  44.690  35.435  1.00  0.00    -0.326 OA
BRANCH   7   8
HETATM    8  C   UNL     1      41.202  43.964  36.661  1.00  0.00     0.177 C 
BRANCH   8   9
HETATM    9  C   UNL     1      39.918  43.189  36.960  1.00  0.00     0.170 C 
BRANCH   9  10
HETATM   10  O   UNL     1      38.938  43.467  35.948  1.00  0.00    -0.380 OA
HETATM   11  H   UNL     1      38.234  42.808  36.121  1.00  0.00     0.211 HD
ENDBRANCH   9  10
BRANCH   9  12
HETATM   12  C   UNL     1      39.339  43.572  38.325  1.00  0.00     0.169 C 
BRANCH  12  13
HETATM   13  O   UNL     1      38.926  44.944  38.287  1.00  0.00    -0.380 OA
HETATM   14  H   UNL     1      38.306  45.021  39.040  1.00  0.00     0.211 HD
ENDBRANCH  12  13
ENDBRANCH   9  12
ENDBRANCH   8   9
ENDBRANCH   7   8
ENDBRANCH   6   7
BRANCH   5  15
HETATM   15  O   UNL     1      39.246  46.741  35.974  1.00  0.00    -0.378 OA
HETATM   16  H   UNL     1      39.443  45.918  36.461  1.00  0.00     0.211 HD
ENDBRANCH   5  15
BRANCH   3  17
HETATM   17  C   UNL     1      43.846  46.202  32.695  1.00  0.00     0.178 C 
BRANCH  17  18
HETATM   18  S   UNL     1      43.971  45.275  31.192  1.00  0.00     0.118 S 
HETATM   19  O   UNL     1      43.745  46.296  30.173  1.00  0.00    -0.594 OA
HETATM   20  O   UNL     1      42.907  44.280  31.307  1.00  0.00    -0.594 OA
HETATM   21  O   UNL     1      45.327  44.741  31.240  1.00  0.00    -0.594 OA
ENDBRANCH  17  18
ENDBRANCH   3  17
BRANCH   4  22
HETATM   22  O   UNL     1      39.215  47.954  33.287  1.00  0.00    -0.380 OA
HETATM   23  H   UNL     1      39.120  47.809  32.322  1.00  0.00     0.211 HD
ENDBRANCH   4  22
BRANCH   2  24
HETATM   24  O   UNL     1      40.977  46.874  31.498  1.00  0.00    -0.380 OA
HETATM   25  H   UNL     1      41.101  45.929  31.222  1.00  0.00     0.211 HD
ENDBRANCH   2  24
TORSDOF 11
ENDMDL
MODEL 3
REMARK VINA RESULT:    -4.734      2.873      5.249
REMARK INTER + INTRA:          -8.351
REMARK INTER:                  -6.866
REMARK INTRA:                  -1.485
REMARK UNBOUND:                -1.264
REMARK  11 active torsions:
REMARK  status: ('A' for Active; 'I' for Inactive)
REMARK    1  A    between atoms: S_1  and  C_17 
REMARK    2  A    between atoms: O_3  and  C_16 
REMARK    3  A    between atoms: O_3  and  C_18 
REMARK    4  A    between atoms: O_4  and  C_12 
REMARK    5  A    between atoms: O_5  and  C_14 
REMARK    6  A    between atoms: O_6  and  C_15 
REMARK    7  A    between atoms: O_10  and  C_19 
REMARK    8  A    between atoms: O_11  and  C_20 
REMARK    9  A    between atoms: C_13  and  C_17 
REMARK   10  A    between atoms: C_18  and  C_19 
REMARK   11  A    between atoms: C_19  and  C_20 
ROOT
HETATM    1  O   UNL     1      40.319  46.767  35.843  1.00  0.00    -0.328 OA
HETATM    2  C   UNL     1      41.842  48.047  34.421  1.00  0.00     0.168 C 
HETATM    3  C   UNL     1      41.718  47.081  35.619  1.00  0.00     0.166 C 
HETATM    4  C   UNL     1      41.145  47.446  33.186  1.00  0.00     0.172 C 
HETATM    5  C   UNL     1      39.715  47.001  33.494  1.00  0.00     0.197 C 
HETATM    6  C   UNL     1      39.708  46.101  34.742  1.00  0.00     0.266 C 
ENDROOT
BRANCH   6   7
HETATM    7  O   UNL     1      40.364  44.860  34.450  1.00  0.00    -0.326 OA
BRANCH   7   8
HETATM    8  C   UNL     1      39.498  43.743  34.671  1.00  0.00     0.177 C 
BRANCH   8   9
HETATM    9  C   UNL     1      40.153  42.731  35.610  1.00  0.00     0.170 C 
BRANCH   9  10
HETATM   10  O   UNL     1      39.558  41.438  35.419  1.00  0.00    -0.380 OA
HETATM   11  H   UNL     1      38.595  41.623  35.429  1.00  0.00     0.211 HD
ENDBRANCH   9  10
BRANCH   9  12
HETATM   12  C   UNL     1      39.985  43.138  37.077  1.00  0.00     0.169 C 
BRANCH  12  13
HETATM   13  O   UNL     1      40.894  44.207  37.370  1.00  0.00    -0.380 OA
HETATM   14  H   UNL     1      41.698  43.747  37.686  1.00  0.00     0.211 HD
ENDBRANCH  12  13
ENDBRANCH   9  12
ENDBRANCH   8   9
ENDBRANCH   7   8
ENDBRANCH   6   7
BRANCH   5  15
HETATM   15  O   UNL     1      39.137  46.297  32.380  1.00  0.00    -0.378 OA
HETATM   16  H   UNL     1      39.877  46.121  31.769  1.00  0.00     0.211 HD
ENDBRANCH   5  15
BRANCH   3  17
HETATM   17  C   UNL     1      42.237  47.644  36.939  1.00  0.00     0.178 C 
BRANCH  17  18
HETATM   18  S   UNL     1      43.765  46.901  37.439  1.00  0.00     0.118 S 
HETATM   19  O   UNL     1      44.275  47.858  38.417  1.00  0.00    -0.594 OA
HETATM   20  O   UNL     1      44.535  46.822  36.200  1.00  0.00    -0.594 OA
HETATM   21  O   UNL     1      43.347  45.617  37.992  1.00  0.00    -0.594 OA
ENDBRANCH  17  18
ENDBRANCH   3  17
BRANCH   4  22
HETATM   22  O   UNL     1      41.156  48.430  32.134  1.00  0.00    -0.380 OA
HETATM   23  H   UNL     1      41.264  49.279  32.613  1.00  0.00     0.211 HD
ENDBRANCH   4  22
BRANCH   2  24
HETATM   24  O   UNL     1      43.170  48.351  33.981  1.00  0.00    -0.380 OA
HETATM   25  H   UNL     1      43.809  47.693  34.360  1.00  0.00     0.211 HD
ENDBRANCH   2  24
TORSDOF 11
ENDMDL
MODEL 4
REMARK VINA RESULT:    -4.680      1.761      4.467
REMARK INTER + INTRA:          -8.269
REMARK INTER:                  -6.888
REMARK INTRA:                  -1.381
REMARK UNBOUND:                -1.264
REMARK  11 active torsions:
REMARK  status: ('A' for Active; 'I' for Inactive)
REMARK    1  A    between atoms: S_1  and  C_17 
REMARK    2  A    between atoms: O_3  and  C_16 
REMARK    3  A    between atoms: O_3  and  C_18 
REMARK    4  A    between atoms: O_4  and  C_12 
REMARK    5  A    between atoms: O_5  and  C_14 
REMARK    6  A    between atoms: O_6  and  C_15 
REMARK    7  A    between atoms: O_10  and  C_19 
REMARK    8  A    between atoms: O_11  and  C_20 
REMARK    9  A    between atoms: C_13  and  C_17 
REMARK   10  A    between atoms: C_18  and  C_19 
REMARK   11  A    between atoms: C_19  and  C_20 
ROOT
HETATM    1  O   UNL     1      41.274  44.726  33.128  1.00  0.00    -0.328 OA
HETATM    2  C   UNL     1      40.055  46.214  34.639  1.00  0.00     0.168 C 
HETATM    3  C   UNL     1      40.712  44.828  34.463  1.00  0.00     0.166 C 
HETATM    4  C   UNL     1      41.073  47.324  34.318  1.00  0.00     0.172 C 
HETATM    5  C   UNL     1      41.746  47.110  32.961  1.00  0.00     0.197 C 
HETATM    6  C   UNL     1      42.302  45.679  32.875  1.00  0.00     0.266 C 
ENDROOT
BRANCH   6   7
HETATM    7  O   UNL     1      43.395  45.527  33.792  1.00  0.00    -0.326 OA
BRANCH   7   8
HETATM    8  C   UNL     1      44.408  44.667  33.263  1.00  0.00     0.177 C 
BRANCH   8   9
HETATM    9  C   UNL     1      44.653  44.969  31.784  1.00  0.00     0.170 C 
BRANCH   9  10
HETATM   10  O   UNL     1      44.972  43.754  31.089  1.00  0.00    -0.380 OA
HETATM   11  H   UNL     1      44.215  43.165  31.294  1.00  0.00     0.211 HD
ENDBRANCH   9  10
BRANCH   9  12
HETATM   12  C   UNL     1      45.807  45.959  31.599  1.00  0.00     0.169 C 
BRANCH  12  13
HETATM   13  O   UNL     1      45.509  47.161  32.322  1.00  0.00    -0.380 OA
HETATM   14  H   UNL     1      44.531  47.200  32.312  1.00  0.00     0.211 HD
ENDBRANCH  12  13
ENDBRANCH   9  12
ENDBRANCH   8   9
ENDBRANCH   7   8
ENDBRANCH   6   7
BRANCH   5  15
HETATM   15  O   UNL     1      42.806  48.061  32.749  1.00  0.00    -0.378 OA
HETATM   16  H   UNL     1      43.610  47.641  33.109  1.00  0.00     0.211 HD
ENDBRANCH   5  15
BRANCH   3  17
HETATM   17  C   UNL     1      39.751  43.652  34.603  1.00  0.00     0.178 C 
BRANCH  17  18
HETATM   18  S   UNL     1      39.855  42.877  36.192  1.00  0.00     0.118 S 
HETATM   19  O   UNL     1      39.491  41.495  35.893  1.00  0.00    -0.594 OA
HETATM   20  O   UNL     1      38.880  43.606  36.999  1.00  0.00    -0.594 OA
HETATM   21  O   UNL     1      41.249  43.078  36.571  1.00  0.00    -0.594 OA
ENDBRANCH  17  18
ENDBRANCH   3  17
BRANCH   4  22
HETATM   22  O   UNL     1      40.390  48.592  34.353  1.00  0.00    -0.380 OA
HETATM   23  H   UNL     1      40.355  48.808  35.309  1.00  0.00     0.211 HD
ENDBRANCH   4  22
BRANCH   2  24
HETATM   24  O   UNL     1      39.571  46.528  35.949  1.00  0.00    -0.380 OA
HETATM   25  H   UNL     1      40.327  46.797  36.532  1.00  0.00     0.211 HD
ENDBRANCH   2  24
TORSDOF 11
ENDMDL
MODEL 5
REMARK VINA RESULT:    -4.647      2.399      3.542
REMARK INTER + INTRA:          -8.220
REMARK INTER:                  -7.113
REMARK INTRA:                  -1.107
REMARK UNBOUND:                -1.264
REMARK  11 active torsions:
REMARK  status: ('A' for Active; 'I' for Inactive)
REMARK    1  A    between atoms: S_1  and  C_17 
REMARK    2  A    between atoms: O_3  and  C_16 
REMARK    3  A    between atoms: O_3  and  C_18 
REMARK    4  A    between atoms: O_4  and  C_12 
REMARK    5  A    between atoms: O_5  and  C_14 
REMARK    6  A    between atoms: O_6  and  C_15 
REMARK    7  A    between atoms: O_10  and  C_19 
REMARK    8  A    between atoms: O_11  and  C_20 
REMARK    9  A    between atoms: C_13  and  C_17 
REMARK   10  A    between atoms: C_18  and  C_19 
REMARK   11  A    between atoms: C_19  and  C_20 
ROOT
HETATM    1  O   UNL     1      42.265  43.590  35.867  1.00  0.00    -0.328 OA
HETATM    2  C   UNL     1      40.312  42.128  36.052  1.00  0.00     0.168 C 
HETATM    3  C   UNL     1      41.394  42.921  36.816  1.00  0.00     0.166 C 
HETATM    4  C   UNL     1      39.560  43.063  35.085  1.00  0.00     0.172 C 
HETATM    5  C   UNL     1      40.516  43.853  34.191  1.00  0.00     0.197 C 
HETATM    6  C   UNL     1      41.586  44.543  35.054  1.00  0.00     0.266 C 
ENDROOT
BRANCH   6   7
HETATM    7  O   UNL     1      40.980  45.571  35.849  1.00  0.00    -0.326 OA
BRANCH   7   8
HETATM    8  C   UNL     1      41.720  46.794  35.777  1.00  0.00     0.177 C 
BRANCH   8   9
HETATM    9  C   UNL     1      41.046  47.776  34.819  1.00  0.00     0.170 C 
BRANCH   9  10
HETATM   10  O   UNL     1      39.683  47.379  34.598  1.00  0.00    -0.380 OA
HETATM   11  H   UNL     1      39.260  47.511  35.472  1.00  0.00     0.211 HD
ENDBRANCH   9  10
BRANCH   9  12
HETATM   12  C   UNL     1      41.769  47.828  33.469  1.00  0.00     0.169 C 
BRANCH  12  13
HETATM   13  O   UNL     1      40.866  48.334  32.478  1.00  0.00    -0.380 OA
HETATM   14  H   UNL     1      39.994  47.994  32.763  1.00  0.00     0.211 HD
ENDBRANCH  12  13
ENDBRANCH   9  12
ENDBRANCH   8   9
ENDBRANCH   7   8
ENDBRANCH   6   7
BRANCH   5  15
HETATM   15  O   UNL     1      39.809  44.835  33.411  1.00  0.00    -0.378 OA
HETATM   16  H   UNL     1      39.674  45.596  34.008  1.00  0.00     0.211 HD
ENDBRANCH   5  15
BRANCH   3  17
HETATM   17  C   UNL     1      42.306  42.063  37.688  1.00  0.00     0.178 C 
BRANCH  17  18
HETATM   18  S   UNL     1      41.582  41.685  39.259  1.00  0.00     0.118 S 
HETATM   19  O   UNL     1      42.744  41.668  40.145  1.00  0.00    -0.594 OA
HETATM   20  O   UNL     1      40.954  40.383  39.049  1.00  0.00    -0.594 OA
HETATM   21  O   UNL     1      40.658  42.792  39.477  1.00  0.00    -0.594 OA
ENDBRANCH  17  18
ENDBRANCH   3  17
BRANCH   4  22
HETATM   22  O   UNL     1      38.661  42.266  34.290  1.00  0.00    -0.380 OA
HETATM   23  H   UNL     1      39.100  41.390  34.254  1.00  0.00     0.211 HD
ENDBRANCH   4  22
BRANCH   2  24
HETATM   24  O   UNL     1      39.287  41.519  36.844  1.00  0.00    -0.380 OA
HETATM   25  H   UNL     1      39.457  41.694  37.806  1.00  0.00     0.211 HD
ENDBRANCH   2  24
TORSDOF 11
ENDMDL
MODEL 6
REMARK VINA RESULT:    -4.600      2.571      4.423
REMARK INTER + INTRA:          -8.149
REMARK INTER:                  -6.761
REMARK INTRA:                  -1.389
REMARK UNBOUND:                -1.264
REMARK  11 active torsions:
REMARK  status: ('A' for Active; 'I' for Inactive)
REMARK    1  A    between atoms: S_1  and  C_17 
REMARK    2  A    between atoms: O_3  and  C_16 
REMARK    3  A    between atoms: O_3  and  C_18 
REMARK    4  A    between atoms: O_4  and  C_12 
REMARK    5  A    between atoms: O_5  and  C_14 
REMARK    6  A    between atoms: O_6  and  C_15 
REMARK    7  A    between atoms: O_10  and  C_19 
REMARK    8  A    between atoms: O_11  and  C_20 
REMARK    9  A    between atoms: C_13  and  C_17 
REMARK   10  A    between atoms: C_18  and  C_19 
REMARK   11  A    between atoms: C_19  and  C_20 
ROOT
HETATM    1  O   UNL     1      42.313  45.303  33.312  1.00  0.00    -0.328 OA
HETATM    2  C   UNL     1      40.188  45.848  34.394  1.00  0.00     0.168 C 
HETATM    3  C   UNL     1      41.578  45.198  34.560  1.00  0.00     0.166 C 
HETATM    4  C   UNL     1      40.341  47.297  33.894  1.00  0.00     0.172 C 
HETATM    5  C   UNL     1      41.233  47.385  32.655  1.00  0.00     0.197 C 
HETATM    6  C   UNL     1      42.558  46.648  32.914  1.00  0.00     0.266 C 
ENDROOT
BRANCH   6   7
HETATM    7  O   UNL     1      43.323  47.356  33.900  1.00  0.00    -0.326 OA
BRANCH   7   8
HETATM    8  C   UNL     1      44.601  47.748  33.390  1.00  0.00     0.177 C 
BRANCH   8   9
HETATM    9  C   UNL     1      44.741  49.270  33.400  1.00  0.00     0.170 C 
BRANCH   9  10
HETATM   10  O   UNL     1      43.586  49.859  34.018  1.00  0.00    -0.380 OA
HETATM   11  H   UNL     1      43.814  49.868  34.971  1.00  0.00     0.211 HD
ENDBRANCH   9  10
BRANCH   9  12
HETATM   12  C   UNL     1      44.878  49.829  31.980  1.00  0.00     0.169 C 
BRANCH  12  13
HETATM   13  O   UNL     1      44.307  48.893  31.056  1.00  0.00    -0.380 OA
HETATM   14  H   UNL     1      45.087  48.478  30.635  1.00  0.00     0.211 HD
ENDBRANCH  12  13
ENDBRANCH   9  12
ENDBRANCH   8   9
ENDBRANCH   7   8
ENDBRANCH   6   7
BRANCH   5  15
HETATM   15  O   UNL     1      41.497  48.755  32.298  1.00  0.00    -0.378 OA
HETATM   16  H   UNL     1      40.634  49.128  32.038  1.00  0.00     0.211 HD
ENDBRANCH   5  15
BRANCH   3  17
HETATM   17  C   UNL     1      41.543  43.712  34.901  1.00  0.00     0.178 C 
BRANCH  17  18
HETATM   18  S   UNL     1      41.267  43.418  36.626  1.00  0.00     0.118 S 
HETATM   19  O   UNL     1      39.827  43.180  36.678  1.00  0.00    -0.594 OA
HETATM   20  O   UNL     1      41.706  44.657  37.265  1.00  0.00    -0.594 OA
HETATM   21  O   UNL     1      42.095  42.250  36.902  1.00  0.00    -0.594 OA
ENDBRANCH  17  18
ENDBRANCH   3  17
BRANCH   4  22
HETATM   22  O   UNL     1      39.029  47.823  33.614  1.00  0.00    -0.380 OA
HETATM   23  H   UNL     1      38.815  48.345  34.416  1.00  0.00     0.211 HD
ENDBRANCH   4  22
BRANCH   2  24
HETATM   24  O   UNL     1      39.386  45.951  35.575  1.00  0.00    -0.380 OA
HETATM   25  H   UNL     1      38.659  46.610  35.432  1.00  0.00     0.211 HD
ENDBRANCH   2  24
TORSDOF 11
ENDMDL
MODEL 7
REMARK VINA RESULT:    -4.446      2.386      4.741
REMARK INTER + INTRA:          -7.919
REMARK INTER:                  -6.847
REMARK INTRA:                  -1.072
REMARK UNBOUND:                -1.264
REMARK  11 active torsions:
REMARK  status: ('A' for Active; 'I' for Inactive)
REMARK    1  A    between atoms: S_1  and  C_17 
REMARK    2  A    between atoms: O_3  and  C_16 
REMARK    3  A    between atoms: O_3  and  C_18 
REMARK    4  A    between atoms: O_4  and  C_12 
REMARK    5  A    between atoms: O_5  and  C_14 
REMARK    6  A    between atoms: O_6  and  C_15 
REMARK    7  A    between atoms: O_10  and  C_19 
REMARK    8  A    between atoms: O_11  and  C_20 
REMARK    9  A    between atoms: C_13  and  C_17 
REMARK   10  A    between atoms: C_18  and  C_19 
REMARK   11  A    between atoms: C_19  and  C_20 
ROOT
HETATM    1  O   UNL     1      43.479  45.133  33.921  1.00  0.00    -0.328 OA
HETATM    2  C   UNL     1      43.730  46.205  31.736  1.00  0.00     0.168 C 
HETATM    3  C   UNL     1      43.506  44.877  32.492  1.00  0.00     0.166 C 
HETATM    4  C   UNL     1      42.662  47.234  32.153  1.00  0.00     0.172 C 
HETATM    5  C   UNL     1      42.568  47.379  33.673  1.00  0.00     0.197 C 
HETATM    6  C   UNL     1      42.415  45.992  34.320  1.00  0.00     0.266 C 
ENDROOT
BRANCH   6   7
HETATM    7  O   UNL     1      41.138  45.435  33.980  1.00  0.00    -0.326 OA
BRANCH   7   8
HETATM    8  C   UNL     1      40.415  45.028  35.146  1.00  0.00     0.177 C 
BRANCH   8   9
HETATM    9  C   UNL     1      40.625  43.539  35.417  1.00  0.00     0.170 C 
BRANCH   9  10
HETATM   10  O   UNL     1      41.344  42.944  34.325  1.00  0.00    -0.380 OA
HETATM   11  H   UNL     1      42.050  43.596  34.132  1.00  0.00     0.211 HD
ENDBRANCH   9  10
BRANCH   9  12
HETATM   12  C   UNL     1      39.289  42.807  35.583  1.00  0.00     0.169 C 
BRANCH  12  13
HETATM   13  O   UNL     1      39.505  41.401  35.411  1.00  0.00    -0.380 OA
HETATM   14  H   UNL     1      40.005  41.143  36.213  1.00  0.00     0.211 HD
ENDBRANCH  12  13
ENDBRANCH   9  12
ENDBRANCH   8   9
ENDBRANCH   7   8
ENDBRANCH   6   7
BRANCH   5  15
HETATM   15  O   UNL     1      41.461  48.218  34.049  1.00  0.00    -0.378 OA
HETATM   16  H   UNL     1      40.682  47.631  34.069  1.00  0.00     0.211 HD
ENDBRANCH   5  15
BRANCH   3  17
HETATM   17  C   UNL     1      44.599  43.836  32.275  1.00  0.00     0.178 C 
BRANCH  17  18
HETATM   18  S   UNL     1      44.023  42.428  31.367  1.00  0.00     0.118 S 
HETATM   19  O   UNL     1      43.347  41.644  32.398  1.00  0.00    -0.594 OA
HETATM   20  O   UNL     1      45.248  41.825  30.846  1.00  0.00    -0.594 OA
HETATM   21  O   UNL     1      43.143  43.015  30.363  1.00  0.00    -0.594 OA
ENDBRANCH  17  18
ENDBRANCH   3  17
BRANCH   4  22
HETATM   22  O   UNL     1      42.985  48.497  31.541  1.00  0.00    -0.380 OA
HETATM   23  H   UNL     1      43.962  48.543  31.610  1.00  0.00     0.211 HD
ENDBRANCH   4  22
BRANCH   2  24
HETATM   24  O   UNL     1      43.646  46.148  30.309  1.00  0.00    -0.380 OA
HETATM   25  H   UNL     1      42.896  45.558  30.038  1.00  0.00     0.211 HD
ENDBRANCH   2  24
TORSDOF 11
ENDMDL
MODEL 8
REMARK VINA RESULT:    -4.381      1.619      4.227
REMARK INTER + INTRA:          -7.822
REMARK INTER:                  -6.392
REMARK INTRA:                  -1.431
REMARK UNBOUND:                -1.264
REMARK  11 active torsions:
REMARK  status: ('A' for Active; 'I' for Inactive)
REMARK    1  A    between atoms: S_1  and  C_17 
REMARK    2  A    between atoms: O_3  and  C_16 
REMARK    3  A    between atoms: O_3  and  C_18 
REMARK    4  A    between atoms: O_4  and  C_12 
REMARK    5  A    between atoms: O_5  and  C_14 
REMARK    6  A    between atoms: O_6  and  C_15 
REMARK    7  A    between atoms: O_10  and  C_19 
REMARK    8  A    between atoms: O_11  and  C_20 
REMARK    9  A    between atoms: C_13  and  C_17 
REMARK   10  A    between atoms: C_18  and  C_19 
REMARK   11  A    between atoms: C_19  and  C_20 
ROOT
HETATM    1  O   UNL     1      41.236  44.787  32.917  1.00  0.00    -0.328 OA
HETATM    2  C   UNL     1      40.091  45.924  34.757  1.00  0.00     0.168 C 
HETATM    3  C   UNL     1      40.831  44.647  34.305  1.00  0.00     0.166 C 
HETATM    4  C   UNL     1      40.972  47.161  34.499  1.00  0.00     0.172 C 
HETATM    5  C   UNL     1      41.491  47.206  33.061  1.00  0.00     0.197 C 
HETATM    6  C   UNL     1      42.146  45.861  32.702  1.00  0.00     0.266 C 
ENDROOT
BRANCH   6   7
HETATM    7  O   UNL     1      43.349  45.688  33.463  1.00  0.00    -0.326 OA
BRANCH   7   8
HETATM    8  C   UNL     1      44.506  45.676  32.621  1.00  0.00     0.177 C 
BRANCH   8   9
HETATM    9  C   UNL     1      44.994  44.245  32.396  1.00  0.00     0.170 C 
BRANCH   9  10
HETATM   10  O   UNL     1      44.515  43.763  31.132  1.00  0.00    -0.380 OA
HETATM   11  H   UNL     1      45.319  43.401  30.703  1.00  0.00     0.211 HD
ENDBRANCH   9  10
BRANCH   9  12
HETATM   12  C   UNL     1      44.501  43.306  33.501  1.00  0.00     0.169 C 
BRANCH  12  13
HETATM   13  O   UNL     1      43.361  42.582  33.021  1.00  0.00    -0.380 OA
HETATM   14  H   UNL     1      43.073  42.060  33.798  1.00  0.00     0.211 HD
ENDBRANCH  12  13
ENDBRANCH   9  12
ENDBRANCH   8   9
ENDBRANCH   7   8
ENDBRANCH   6   7
BRANCH   5  15
HETATM   15  O   UNL     1      42.439  48.274  32.882  1.00  0.00    -0.378 OA
HETATM   16  H   UNL     1      42.373  48.528  31.942  1.00  0.00     0.211 HD
ENDBRANCH   5  15
BRANCH   3  17
HETATM   17  C   UNL     1      39.991  43.375  34.369  1.00  0.00     0.178 C 
BRANCH  17  18
HETATM   18  S   UNL     1      40.572  42.240  35.598  1.00  0.00     0.118 S 
HETATM   19  O   UNL     1      39.356  41.513  35.954  1.00  0.00    -0.594 OA
HETATM   20  O   UNL     1      41.098  43.105  36.650  1.00  0.00    -0.594 OA
HETATM   21  O   UNL     1      41.571  41.455  34.882  1.00  0.00    -0.594 OA
ENDBRANCH  17  18
ENDBRANCH   3  17
BRANCH   4  22
HETATM   22  O   UNL     1      40.198  48.339  34.797  1.00  0.00    -0.380 OA
HETATM   23  H   UNL     1      39.440  48.280  34.178  1.00  0.00     0.211 HD
ENDBRANCH   4  22
BRANCH   2  24
HETATM   24  O   UNL     1      39.744  46.003  36.143  1.00  0.00    -0.380 OA
HETATM   25  H   UNL     1      39.695  46.953  36.424  1.00  0.00     0.211 HD
ENDBRANCH   2  24
TORSDOF 11
ENDMDL
MODEL 9
REMARK VINA RESULT:    -4.328      2.160      5.242
REMARK INTER + INTRA:          -7.742
REMARK INTER:                  -6.306
REMARK INTRA:                  -1.436
REMARK UNBOUND:                -1.264
REMARK  11 active torsions:
REMARK  status: ('A' for Active; 'I' for Inactive)
REMARK    1  A    between atoms: S_1  and  C_17 
REMARK    2  A    between atoms: O_3  and  C_16 
REMARK    3  A    between atoms: O_3  and  C_18 
REMARK    4  A    between atoms: O_4  and  C_12 
REMARK    5  A    between atoms: O_5  and  C_14 
REMARK    6  A    between atoms: O_6  and  C_15 
REMARK    7  A    between atoms: O_10  and  C_19 
REMARK    8  A    between atoms: O_11  and  C_20 
REMARK    9  A    between atoms: C_13  and  C_17 
REMARK   10  A    between atoms: C_18  and  C_19 
REMARK   11  A    between atoms: C_19  and  C_20 
ROOT
HETATM    1  O   UNL     1      42.489  45.682  34.863  1.00  0.00    -0.328 OA
HETATM    2  C   UNL     1      42.560  46.839  32.708  1.00  0.00     0.168 C 
HETATM    3  C   UNL     1      42.914  45.550  33.481  1.00  0.00     0.166 C 
HETATM    4  C   UNL     1      41.058  47.147  32.860  1.00  0.00     0.172 C 
HETATM    5  C   UNL     1      40.617  47.145  34.325  1.00  0.00     0.197 C 
HETATM    6  C   UNL     1      41.082  45.847  35.006  1.00  0.00     0.266 C 
ENDROOT
BRANCH   6   7
HETATM    7  O   UNL     1      40.365  44.730  34.463  1.00  0.00    -0.326 OA
BRANCH   7   8
HETATM    8  C   UNL     1      40.055  43.764  35.473  1.00  0.00     0.177 C 
BRANCH   8   9
HETATM    9  C   UNL     1      40.714  42.422  35.155  1.00  0.00     0.170 C 
BRANCH   9  10
HETATM   10  O   UNL     1      39.750  41.366  35.289  1.00  0.00    -0.380 OA
HETATM   11  H   UNL     1      39.870  41.060  36.213  1.00  0.00     0.211 HD
ENDBRANCH   9  10
BRANCH   9  12
HETATM   12  C   UNL     1      41.889  42.138  36.096  1.00  0.00     0.169 C 
BRANCH  12  13
HETATM   13  O   UNL     1      43.088  42.665  35.513  1.00  0.00    -0.380 OA
HETATM   14  H   UNL     1      43.651  41.874  35.386  1.00  0.00     0.211 HD
ENDBRANCH  12  13
ENDBRANCH   9  12
ENDBRANCH   8   9
ENDBRANCH   7   8
ENDBRANCH   6   7
BRANCH   5  15
HETATM   15  O   UNL     1      39.188  47.273  34.438  1.00  0.00    -0.378 OA
HETATM   16  H   UNL     1      38.818  46.485  33.996  1.00  0.00     0.211 HD
ENDBRANCH   5  15
BRANCH   3  17
HETATM   17  C   UNL     1      44.405  45.233  33.530  1.00  0.00     0.178 C 
BRANCH  17  18
HETATM   18  S   UNL     1      44.856  43.915  32.437  1.00  0.00     0.118 S 
HETATM   19  O   UNL     1      46.207  43.584  32.883  1.00  0.00    -0.594 OA
HETATM   20  O   UNL     1      44.781  44.522  31.110  1.00  0.00    -0.594 OA
HETATM   21  O   UNL     1      43.849  42.896  32.710  1.00  0.00    -0.594 OA
ENDBRANCH  17  18
ENDBRANCH   3  17
BRANCH   4  22
HETATM   22  O   UNL     1      40.793  48.425  32.250  1.00  0.00    -0.380 OA
HETATM   23  H   UNL     1      40.657  48.205  31.304  1.00  0.00     0.211 HD
ENDBRANCH   4  22
BRANCH   2  24
HETATM   24  O   UNL     1      42.789  46.819  31.296  1.00  0.00    -0.380 OA
HETATM   25  H   UNL     1      42.480  47.671  30.893  1.00  0.00     0.211 HD
ENDBRANCH   2  24
TORSDOF 11
ENDMDL
MODEL 10
REMARK VINA RESULT:    -4.071      2.046      4.299
REMARK INTER + INTRA:          -7.357
REMARK INTER:                  -5.501
REMARK INTRA:                  -1.857
REMARK UNBOUND:                -1.264
REMARK  11 active torsions:
REMARK  status: ('A' for Active; 'I' for Inactive)
REMARK    1  A    between atoms: S_1  and  C_17 
REMARK    2  A    between atoms: O_3  and  C_16 
REMARK    3  A    between atoms: O_3  and  C_18 
REMARK    4  A    between atoms: O_4  and  C_12 
REMARK    5  A    between atoms: O_5  and  C_14 
REMARK    6  A    between atoms: O_6  and  C_15 
REMARK    7  A    between atoms: O_10  and  C_19 
REMARK    8  A    between atoms: O_11  and  C_20 
REMARK    9  A    between atoms: C_13  and  C_17 
REMARK   10  A    between atoms: C_18  and  C_19 
REMARK   11  A    between atoms: C_19  and  C_20 
ROOT
HETATM    1  O   UNL     1      42.544  44.920  33.976  1.00  0.00    -0.328 OA
HETATM    2  C   UNL     1      40.483  46.125  34.511  1.00  0.00     0.168 C 
HETATM    3  C   UNL     1      41.340  44.871  34.787  1.00  0.00     0.166 C 
HETATM    4  C   UNL     1      41.323  47.396  34.738  1.00  0.00     0.172 C 
HETATM    5  C   UNL     1      42.647  47.354  33.973  1.00  0.00     0.197 C 
HETATM    6  C   UNL     1      43.379  46.034  34.273  1.00  0.00     0.266 C 
ENDROOT
BRANCH   6   7
HETATM    7  O   UNL     1      43.808  46.017  35.641  1.00  0.00    -0.326 OA
BRANCH   7   8
HETATM    8  C   UNL     1      45.064  45.348  35.789  1.00  0.00     0.177 C 
BRANCH   8   9
HETATM    9  C   UNL     1      44.909  44.095  36.651  1.00  0.00     0.170 C 
BRANCH   9  10
HETATM   10  O   UNL     1      44.170  43.098  35.929  1.00  0.00    -0.380 OA
HETATM   11  H   UNL     1      43.897  42.464  36.624  1.00  0.00     0.211 HD
ENDBRANCH   9  10
BRANCH   9  12
HETATM   12  C   UNL     1      44.172  44.403  37.958  1.00  0.00     0.169 C 
BRANCH  12  13
HETATM   13  O   UNL     1      42.760  44.337  37.723  1.00  0.00    -0.380 OA
HETATM   14  H   UNL     1      42.550  45.206  37.324  1.00  0.00     0.211 HD
ENDBRANCH  12  13
ENDBRANCH   9  12
ENDBRANCH   8   9
ENDBRANCH   7   8
ENDBRANCH   6   7
BRANCH   5  15
HETATM   15  O   UNL     1      43.487  48.469  34.322  1.00  0.00    -0.378 OA
HETATM   16  H   UNL     1      44.297  48.078  34.702  1.00  0.00     0.211 HD
ENDBRANCH   5  15
BRANCH   3  17
HETATM   17  C   UNL     1      40.657  43.552  34.442  1.00  0.00     0.178 C 
BRANCH  17  18
HETATM   18  S   UNL     1      40.332  42.562  35.874  1.00  0.00     0.118 S 
HETATM   19  O   UNL     1      39.414  41.550  35.356  1.00  0.00    -0.594 OA
HETATM   20  O   UNL     1      39.735  43.502  36.819  1.00  0.00    -0.594 OA
HETATM   21  O   UNL     1      41.653  42.065  36.243  1.00  0.00    -0.594 OA
ENDBRANCH  17  18
ENDBRANCH   3  17
BRANCH   4  22
HETATM   22  O   UNL     1      40.540  48.537  34.335  1.00  0.00    -0.380 OA
HETATM   23  H   UNL     1      40.509  48.461  33.358  1.00  0.00     0.211 HD
ENDBRANCH   4  22
BRANCH   2  24
HETATM   24  O   UNL     1      39.325  46.300  35.332  1.00  0.00    -0.380 OA
HETATM   25  H   UNL     1      38.849  45.435  35.432  1.00  0.00     0.211 HD
ENDBRANCH   2  24
TORSDOF 11
ENDMDL
