MODEL 1
REMARK VINA RESULT:    -5.221      0.000      0.000
REMARK INTER + INTRA:          -6.529
REMARK INTER:                  -6.283
REMARK INTRA:                  -0.246
REMARK UNBOUND:                -0.239
REMARK  6 active torsions:
REMARK  status: ('A' for Active; 'I' for Inactive)
REMARK    1  A    between atoms: O_2  and  C_7 
REMARK    2  A    between atoms: O_3  and  C_8 
REMARK    3  A    between atoms: O_4  and  C_10 
REMARK    4  A    between atoms: O_5  and  C_11 
REMARK    5  A    between atoms: O_6  and  C_12 
REMARK    6  A    between atoms: C_9  and  C_12 
ROOT
HETATM    1  O   UNL     1      45.556  43.470  47.279  1.00  0.00    -0.327 OA
HETATM    2  C   UNL     1      45.245  43.667  49.701  1.00  0.00     0.170 C 
HETATM    3  C   UNL     1      43.934  44.419  49.451  1.00  0.00     0.172 C 
HETATM    4  C   UNL     1      46.195  43.852  48.508  1.00  0.00     0.176 C 
HETATM    5  C   UNL     1      43.344  44.041  48.094  1.00  0.00     0.197 C 
HETATM    6  C   UNL     1      44.401  44.257  46.998  1.00  0.00     0.263 C 
ENDROOT
BRANCH   4   7
HETATM    7  C   UNL     1      47.453  42.991  48.656  1.00  0.00     0.170 C 
BRANCH   7   8
HETATM    8  O   UNL     1      48.369  43.643  49.537  1.00  0.00    -0.380 OA
HETATM    9  H   UNL     1      47.815  44.186  50.134  1.00  0.00     0.211 HD
ENDBRANCH   7   8
ENDBRANCH   4   7
BRANCH   2  10
HETATM   10  O   UNL     1      45.810  44.126  50.932  1.00  0.00    -0.380 OA
HETATM   11  H   UNL     1      46.773  43.966  50.920  1.00  0.00     0.211 HD
ENDBRANCH   2  10
BRANCH   6  12
HETATM   12  O   UNL     1      43.874  43.869  45.736  1.00  0.00    -0.359 OA
HETATM   13  H   UNL     1      44.636  43.549  45.217  1.00  0.00     0.213 HD
ENDBRANCH   6  12
BRANCH   3  14
HETATM   14  O   UNL     1      42.978  44.118  50.478  1.00  0.00    -0.380 OA
HETATM   15  H   UNL     1      43.368  44.442  51.316  1.00  0.00     0.211 HD
ENDBRANCH   3  14
BRANCH   5  16
HETATM   16  O   UNL     1      42.173  44.824  47.828  1.00  0.00    -0.378 OA
HETATM   17  H   UNL     1      41.462  44.170  47.668  1.00  0.00     0.211 HD
ENDBRANCH   5  16
TORSDOF 6
ENDMDL
MODEL 2
REMARK VINA RESULT:    -5.138      1.324      3.745
REMARK INTER + INTRA:          -6.429
REMARK INTER:                  -6.214
REMARK INTRA:                  -0.216
REMARK UNBOUND:                -0.239
REMARK  6 active torsions:
REMARK  status: ('A' for Active; 'I' for Inactive)
REMARK    1  A    between atoms: O_2  and  C_7 
REMARK    2  A    between atoms: O_3  and  C_8 
REMARK    3  A    between atoms: O_4  and  C_10 
REMARK    4  A    between atoms: O_5  and  C_11 
REMARK    5  A    between atoms: O_6  and  C_12 
REMARK    6  A    between atoms: C_9  and  C_12 
ROOT
HETATM    1  O   UNL     1      46.126  44.418  48.496  1.00  0.00    -0.327 OA
HETATM    2  C   UNL     1      43.820  43.830  49.076  1.00  0.00     0.170 C 
HETATM    3  C   UNL     1      44.282  43.506  50.500  1.00  0.00     0.172 C 
HETATM    4  C   UNL     1      44.983  43.647  48.089  1.00  0.00     0.176 C 
HETATM    5  C   UNL     1      45.548  44.286  50.848  1.00  0.00     0.197 C 
HETATM    6  C   UNL     1      46.620  44.027  49.775  1.00  0.00     0.263 C 
ENDROOT
BRANCH   4   7
HETATM    7  C   UNL     1      44.600  44.109  46.680  1.00  0.00     0.170 C 
BRANCH   7   8
HETATM    8  O   UNL     1      43.288  44.673  46.711  1.00  0.00    -0.380 OA
HETATM    9  H   UNL     1      42.702  43.996  46.314  1.00  0.00     0.211 HD
ENDBRANCH   7   8
ENDBRANCH   4   7
BRANCH   2  10
HETATM   10  O   UNL     1      42.695  43.005  48.759  1.00  0.00    -0.380 OA
HETATM   11  H   UNL     1      41.971  43.568  48.427  1.00  0.00     0.211 HD
ENDBRANCH   2  10
BRANCH   6  12
HETATM   12  O   UNL     1      47.789  44.782  50.068  1.00  0.00    -0.359 OA
HETATM   13  H   UNL     1      48.453  44.510  49.408  1.00  0.00     0.213 HD
ENDBRANCH   6  12
BRANCH   3  14
HETATM   14  O   UNL     1      43.255  43.833  51.448  1.00  0.00    -0.380 OA
HETATM   15  H   UNL     1      42.441  43.981  50.926  1.00  0.00     0.211 HD
ENDBRANCH   3  14
BRANCH   5  16
HETATM   16  O   UNL     1      46.027  43.900  52.142  1.00  0.00    -0.378 OA
HETATM   17  H   UNL     1      46.093  42.924  52.109  1.00  0.00     0.211 HD
ENDBRANCH   5  16
TORSDOF 6
ENDMDL
MODEL 3
REMARK VINA RESULT:    -5.133      1.560      4.001
REMARK INTER + INTRA:          -6.422
REMARK INTER:                  -6.389
REMARK INTRA:                  -0.033
REMARK UNBOUND:                -0.239
REMARK  6 active torsions:
REMARK  status: ('A' for Active; 'I' for Inactive)
REMARK    1  A    between atoms: O_2  and  C_7 
REMARK    2  A    between atoms: O_3  and  C_8 
REMARK    3  A    between atoms: O_4  and  C_10 
REMARK    4  A    between atoms: O_5  and  C_11 
REMARK    5  A    between atoms: O_6  and  C_12 
REMARK    6  A    between atoms: C_9  and  C_12 
ROOT
HETATM    1  O   UNL     1      45.502  43.154  47.908  1.00  0.00    -0.327 OA
HETATM    2  C   UNL     1      45.784  44.045  50.172  1.00  0.00     0.170 C 
HETATM    3  C   UNL     1      47.147  43.349  50.254  1.00  0.00     0.172 C 
HETATM    4  C   UNL     1      44.869  43.298  49.190  1.00  0.00     0.176 C 
HETATM    5  C   UNL     1      47.733  43.142  48.859  1.00  0.00     0.197 C 
HETATM    6  C   UNL     1      46.711  42.403  47.979  1.00  0.00     0.263 C 
ENDROOT
BRANCH   4   7
HETATM    7  C   UNL     1      43.554  44.052  48.968  1.00  0.00     0.170 C 
BRANCH   7   8
HETATM    8  O   UNL     1      42.616  43.182  48.332  1.00  0.00    -0.380 OA
HETATM    9  H   UNL     1      41.837  43.159  48.924  1.00  0.00     0.211 HD
ENDBRANCH   7   8
ENDBRANCH   4   7
BRANCH   2  10
HETATM   10  O   UNL     1      45.230  44.126  51.489  1.00  0.00    -0.380 OA
HETATM   11  H   UNL     1      44.258  44.084  51.427  1.00  0.00     0.211 HD
ENDBRANCH   2  10
BRANCH   6  12
HETATM   12  O   UNL     1      47.232  42.242  46.666  1.00  0.00    -0.359 OA
HETATM   13  H   UNL     1      47.304  43.142  46.296  1.00  0.00     0.213 HD
ENDBRANCH   6  12
BRANCH   3  14
HETATM   14  O   UNL     1      48.063  44.129  51.037  1.00  0.00    -0.380 OA
HETATM   15  H   UNL     1      47.552  44.460  51.803  1.00  0.00     0.211 HD
ENDBRANCH   3  14
BRANCH   5  16
HETATM   16  O   UNL     1      48.958  42.403  48.941  1.00  0.00    -0.378 OA
HETATM   17  H   UNL     1      49.489  42.866  49.622  1.00  0.00     0.211 HD
ENDBRANCH   5  16
TORSDOF 6
ENDMDL
MODEL 4
REMARK VINA RESULT:    -5.104      1.810      3.723
REMARK INTER + INTRA:          -6.387
REMARK INTER:                  -6.150
REMARK INTRA:                  -0.237
REMARK UNBOUND:                -0.239
REMARK  6 active torsions:
REMARK  status: ('A' for Active; 'I' for Inactive)
REMARK    1  A    between atoms: O_2  and  C_7 
REMARK    2  A    between atoms: O_3  and  C_8 
REMARK    3  A    between atoms: O_4  and  C_10 
REMARK    4  A    between atoms: O_5  and  C_11 
REMARK    5  A    between atoms: O_6  and  C_12 
REMARK    6  A    between atoms: C_9  and  C_12 
ROOT
HETATM    1  O   UNL     1      43.016  44.037  50.405  1.00  0.00    -0.327 OA
HETATM    2  C   UNL     1      45.242  44.759  51.129  1.00  0.00     0.170 C 
HETATM    3  C   UNL     1      45.848  44.028  49.926  1.00  0.00     0.172 C 
HETATM    4  C   UNL     1      43.911  44.104  51.528  1.00  0.00     0.176 C 
HETATM    5  C   UNL     1      44.827  43.908  48.797  1.00  0.00     0.197 C 
HETATM    6  C   UNL     1      43.542  43.255  49.335  1.00  0.00     0.263 C 
ENDROOT
BRANCH   4   7
HETATM    7  C   UNL     1      43.204  44.900  52.628  1.00  0.00     0.170 C 
BRANCH   7   8
HETATM    8  O   UNL     1      43.532  46.284  52.492  1.00  0.00    -0.380 OA
HETATM    9  H   UNL     1      44.143  46.334  51.729  1.00  0.00     0.211 HD
ENDBRANCH   7   8
ENDBRANCH   4   7
BRANCH   2  10
HETATM   10  O   UNL     1      46.197  44.758  52.195  1.00  0.00    -0.380 OA
HETATM   11  H   UNL     1      45.900  45.377  52.888  1.00  0.00     0.211 HD
ENDBRANCH   2  10
BRANCH   6  12
HETATM   12  O   UNL     1      42.571  43.177  48.301  1.00  0.00    -0.359 OA
HETATM   13  H   UNL     1      42.459  42.226  48.112  1.00  0.00     0.213 HD
ENDBRANCH   6  12
BRANCH   3  14
HETATM   14  O   UNL     1      47.003  44.730  49.442  1.00  0.00    -0.380 OA
HETATM   15  H   UNL     1      47.075  44.509  48.490  1.00  0.00     0.211 HD
ENDBRANCH   3  14
BRANCH   5  16
HETATM   16  O   UNL     1      45.371  43.137  47.718  1.00  0.00    -0.378 OA
HETATM   17  H   UNL     1      44.937  42.262  47.787  1.00  0.00     0.211 HD
ENDBRANCH   5  16
TORSDOF 6
ENDMDL
MODEL 5
REMARK VINA RESULT:    -5.062      1.627      2.278
REMARK INTER + INTRA:          -6.337
REMARK INTER:                  -6.133
REMARK INTRA:                  -0.205
REMARK UNBOUND:                -0.239
REMARK  6 active torsions:
REMARK  status: ('A' for Active; 'I' for Inactive)
REMARK    1  A    between atoms: O_2  and  C_7 
REMARK    2  A    between atoms: O_3  and  C_8 
REMARK    3  A    between atoms: O_4  and  C_10 
REMARK    4  A    between atoms: O_5  and  C_11 
REMARK    5  A    between atoms: O_6  and  C_12 
REMARK    6  A    between atoms: C_9  and  C_12 
ROOT
HETATM    1  O   UNL     1      45.080  43.132  48.942  1.00  0.00    -0.327 OA
HETATM    2  C   UNL     1      46.109  43.490  51.136  1.00  0.00     0.170 C 
HETATM    3  C   UNL     1      44.760  43.990  51.665  1.00  0.00     0.172 C 
HETATM    4  C   UNL     1      46.201  43.723  49.621  1.00  0.00     0.176 C 
HETATM    5  C   UNL     1      43.610  43.400  50.852  1.00  0.00     0.197 C 
HETATM    6  C   UNL     1      43.836  43.690  49.358  1.00  0.00     0.263 C 
ENDROOT
BRANCH   4   7
HETATM    7  C   UNL     1      47.471  43.099  49.035  1.00  0.00     0.170 C 
BRANCH   7   8
HETATM    8  O   UNL     1      48.615  43.714  49.629  1.00  0.00    -0.380 OA
HETATM    9  H   UNL     1      49.368  43.126  49.416  1.00  0.00     0.211 HD
ENDBRANCH   7   8
ENDBRANCH   4   7
BRANCH   2  10
HETATM   10  O   UNL     1      47.156  44.145  51.859  1.00  0.00    -0.380 OA
HETATM   11  H   UNL     1      47.424  44.947  51.373  1.00  0.00     0.211 HD
ENDBRANCH   2  10
BRANCH   6  12
HETATM   12  O   UNL     1      42.791  43.108  48.590  1.00  0.00    -0.359 OA
HETATM   13  H   UNL     1      42.227  43.850  48.303  1.00  0.00     0.213 HD
ENDBRANCH   6  12
BRANCH   3  14
HETATM   14  O   UNL     1      44.595  43.628  53.043  1.00  0.00    -0.380 OA
HETATM   15  H   UNL     1      43.631  43.642  53.214  1.00  0.00     0.211 HD
ENDBRANCH   3  14
BRANCH   5  16
HETATM   16  O   UNL     1      42.361  43.951  51.290  1.00  0.00    -0.378 OA
HETATM   17  H   UNL     1      42.584  44.496  52.072  1.00  0.00     0.211 HD
ENDBRANCH   5  16
TORSDOF 6
ENDMDL
MODEL 6
REMARK VINA RESULT:    -4.957      1.436      3.117
REMARK INTER + INTRA:          -6.210
REMARK INTER:                  -6.148
REMARK INTRA:                  -0.062
REMARK UNBOUND:                -0.239
REMARK  6 active torsions:
REMARK  status: ('A' for Active; 'I' for Inactive)
REMARK    1  A    between atoms: O_2  and  C_7 
REMARK    2  A    between atoms: O_3  and  C_8 
REMARK    3  A    between atoms: O_4  and  C_10 
REMARK    4  A    between atoms: O_5  and  C_11 
REMARK    5  A    between atoms: O_6  and  C_12 
REMARK    6  A    between atoms: C_9  and  C_12 
ROOT
HETATM    1  O   UNL     1      44.755  43.865  51.138  1.00  0.00    -0.327 OA
HETATM    2  C   UNL     1      46.157  43.807  49.130  1.00  0.00     0.170 C 
HETATM    3  C   UNL     1      44.952  43.302  48.328  1.00  0.00     0.172 C 
HETATM    4  C   UNL     1      46.011  43.411  50.606  1.00  0.00     0.176 C 
HETATM    5  C   UNL     1      43.645  43.739  48.985  1.00  0.00     0.197 C 
HETATM    6  C   UNL     1      43.639  43.297  50.458  1.00  0.00     0.263 C 
ENDROOT
BRANCH   4   7
HETATM    7  C   UNL     1      47.120  44.029  51.464  1.00  0.00     0.170 C 
BRANCH   7   8
HETATM    8  O   UNL     1      46.957  45.448  51.491  1.00  0.00    -0.380 OA
HETATM    9  H   UNL     1      46.716  45.666  52.414  1.00  0.00     0.211 HD
ENDBRANCH   7   8
ENDBRANCH   4   7
BRANCH   2  10
HETATM   10  O   UNL     1      47.352  43.290  48.536  1.00  0.00    -0.380 OA
HETATM   11  H   UNL     1      47.638  42.501  49.033  1.00  0.00     0.211 HD
ENDBRANCH   2  10
BRANCH   6  12
HETATM   12  O   UNL     1      42.443  43.736  51.089  1.00  0.00    -0.359 OA
HETATM   13  H   UNL     1      42.223  44.591  50.676  1.00  0.00     0.213 HD
ENDBRANCH   6  12
BRANCH   3  14
HETATM   14  O   UNL     1      44.994  43.808  46.986  1.00  0.00    -0.380 OA
HETATM   15  H   UNL     1      44.653  44.724  47.030  1.00  0.00     0.211 HD
ENDBRANCH   3  14
BRANCH   5  16
HETATM   16  O   UNL     1      42.527  43.179  48.285  1.00  0.00    -0.378 OA
HETATM   17  H   UNL     1      41.880  43.910  48.213  1.00  0.00     0.211 HD
ENDBRANCH   5  16
TORSDOF 6
ENDMDL
MODEL 7
REMARK VINA RESULT:    -4.822      1.756      3.614
REMARK INTER + INTRA:          -6.048
REMARK INTER:                  -5.802
REMARK INTRA:                  -0.246
REMARK UNBOUND:                -0.239
REMARK  6 active torsions:
REMARK  status: ('A' for Active; 'I' for Inactive)
REMARK    1  A    between atoms: O_2  and  C_7 
REMARK    2  A    between atoms: O_3  and  C_8 
REMARK    3  A    between atoms: O_4  and  C_10 
REMARK    4  A    between atoms: O_5  and  C_11 
REMARK    5  A    between atoms: O_6  and  C_12 
REMARK    6  A    between atoms: C_9  and  C_12 
ROOT
HETATM    1  O   UNL     1      46.105  43.735  50.896  1.00  0.00    -0.327 OA
HETATM    2  C   UNL     1      43.662  43.600  50.783  1.00  0.00     0.170 C 
HETATM    3  C   UNL     1      43.745  43.758  49.261  1.00  0.00     0.172 C 
HETATM    4  C   UNL     1      44.883  44.253  51.448  1.00  0.00     0.176 C 
HETATM    5  C   UNL     1      45.096  43.274  48.740  1.00  0.00     0.197 C 
HETATM    6  C   UNL     1      46.225  43.992  49.499  1.00  0.00     0.263 C 
ENDROOT
BRANCH   4   7
HETATM    7  C   UNL     1      44.912  43.981  52.955  1.00  0.00     0.170 C 
BRANCH   7   8
HETATM    8  O   UNL     1      43.962  44.829  53.603  1.00  0.00    -0.380 OA
HETATM    9  H   UNL     1      44.492  45.492  54.091  1.00  0.00     0.211 HD
ENDBRANCH   7   8
ENDBRANCH   4   7
BRANCH   2  10
HETATM   10  O   UNL     1      42.425  44.157  51.236  1.00  0.00    -0.380 OA
HETATM   11  H   UNL     1      41.746  44.027  50.548  1.00  0.00     0.211 HD
ENDBRANCH   2  10
BRANCH   6  12
HETATM   12  O   UNL     1      47.487  43.517  49.049  1.00  0.00    -0.359 OA
HETATM   13  H   UNL     1      48.138  43.831  49.705  1.00  0.00     0.213 HD
ENDBRANCH   6  12
BRANCH   3  14
HETATM   14  O   UNL     1      42.700  43.010  48.621  1.00  0.00    -0.380 OA
HETATM   15  H   UNL     1      43.100  42.616  47.819  1.00  0.00     0.211 HD
ENDBRANCH   3  14
BRANCH   5  16
HETATM   16  O   UNL     1      45.200  43.518  47.332  1.00  0.00    -0.378 OA
HETATM   17  H   UNL     1      45.657  44.381  47.257  1.00  0.00     0.211 HD
ENDBRANCH   5  16
TORSDOF 6
ENDMDL
MODEL 8
REMARK VINA RESULT:    -4.792      1.592      4.167
REMARK INTER + INTRA:          -6.012
REMARK INTER:                  -5.773
REMARK INTRA:                  -0.239
REMARK UNBOUND:                -0.239
REMARK  6 active torsions:
REMARK  status: ('A' for Active; 'I' for Inactive)
REMARK    1  A    between atoms: O_2  and  C_7 
REMARK    2  A    between atoms: O_3  and  C_8 
REMARK    3  A    between atoms: O_4  and  C_10 
REMARK    4  A    between atoms: O_5  and  C_11 
REMARK    5  A    between atoms: O_6  and  C_12 
REMARK    6  A    between atoms: C_9  and  C_12 
ROOT
HETATM    1  O   UNL     1      46.144  43.741  48.870  1.00  0.00    -0.327 OA
HETATM    2  C   UNL     1      44.528  44.125  50.671  1.00  0.00     0.170 C 
HETATM    3  C   UNL     1      45.598  43.719  51.690  1.00  0.00     0.172 C 
HETATM    4  C   UNL     1      44.807  43.455  49.317  1.00  0.00     0.176 C 
HETATM    5  C   UNL     1      46.997  43.961  51.130  1.00  0.00     0.197 C 
HETATM    6  C   UNL     1      47.135  43.253  49.771  1.00  0.00     0.263 C 
ENDROOT
BRANCH   4   7
HETATM    7  C   UNL     1      43.847  43.958  48.235  1.00  0.00     0.170 C 
BRANCH   7   8
HETATM    8  O   UNL     1      42.638  43.200  48.291  1.00  0.00    -0.380 OA
HETATM    9  H   UNL     1      42.030  43.718  48.856  1.00  0.00     0.211 HD
ENDBRANCH   7   8
ENDBRANCH   4   7
BRANCH   2  10
HETATM   10  O   UNL     1      43.241  43.788  51.197  1.00  0.00    -0.380 OA
HETATM   11  H   UNL     1      43.282  43.805  52.172  1.00  0.00     0.211 HD
ENDBRANCH   2  10
BRANCH   6  12
HETATM   12  O   UNL     1      48.422  43.507  49.222  1.00  0.00    -0.359 OA
HETATM   13  H   UNL     1      49.047  42.983  49.756  1.00  0.00     0.213 HD
ENDBRANCH   6  12
BRANCH   3  14
HETATM   14  O   UNL     1      45.444  44.466  52.906  1.00  0.00    -0.380 OA
HETATM   15  H   UNL     1      44.806  43.965  53.453  1.00  0.00     0.211 HD
ENDBRANCH   3  14
BRANCH   5  16
HETATM   16  O   UNL     1      47.988  43.485  52.049  1.00  0.00    -0.378 OA
HETATM   17  H   UNL     1      47.562  43.533  52.930  1.00  0.00     0.211 HD
ENDBRANCH   5  16
TORSDOF 6
ENDMDL
MODEL 9
REMARK VINA RESULT:    -4.763      1.374      4.596
REMARK INTER + INTRA:          -5.977
REMARK INTER:                  -5.924
REMARK INTRA:                  -0.054
REMARK UNBOUND:                -0.239
REMARK  6 active torsions:
REMARK  status: ('A' for Active; 'I' for Inactive)
REMARK    1  A    between atoms: O_2  and  C_7 
REMARK    2  A    between atoms: O_3  and  C_8 
REMARK    3  A    between atoms: O_4  and  C_10 
REMARK    4  A    between atoms: O_5  and  C_11 
REMARK    5  A    between atoms: O_6  and  C_12 
REMARK    6  A    between atoms: C_9  and  C_12 
ROOT
HETATM    1  O   UNL     1      44.778  44.129  49.716  1.00  0.00    -0.327 OA
HETATM    2  C   UNL     1      45.820  43.170  47.717  1.00  0.00     0.170 C 
HETATM    3  C   UNL     1      47.136  43.039  48.491  1.00  0.00     0.172 C 
HETATM    4  C   UNL     1      44.974  44.310  48.303  1.00  0.00     0.176 C 
HETATM    5  C   UNL     1      46.873  42.938  49.991  1.00  0.00     0.197 C 
HETATM    6  C   UNL     1      46.005  44.127  50.441  1.00  0.00     0.263 C 
ENDROOT
BRANCH   4   7
HETATM    7  C   UNL     1      43.588  44.371  47.654  1.00  0.00     0.170 C 
BRANCH   7   8
HETATM    8  O   UNL     1      42.749  43.377  48.244  1.00  0.00    -0.380 OA
HETATM    9  H   UNL     1      42.400  42.851  47.496  1.00  0.00     0.211 HD
ENDBRANCH   7   8
ENDBRANCH   4   7
BRANCH   2  10
HETATM   10  O   UNL     1      46.119  43.363  46.331  1.00  0.00    -0.380 OA
HETATM   11  H   UNL     1      46.492  42.538  45.969  1.00  0.00     0.211 HD
ENDBRANCH   2  10
BRANCH   6  12
HETATM   12  O   UNL     1      45.721  44.019  51.829  1.00  0.00    -0.359 OA
HETATM   13  H   UNL     1      45.964  44.880  52.218  1.00  0.00     0.213 HD
ENDBRANCH   6  12
BRANCH   3  14
HETATM   14  O   UNL     1      47.857  41.875  48.062  1.00  0.00    -0.380 OA
HETATM   15  H   UNL     1      48.593  41.762  48.697  1.00  0.00     0.211 HD
ENDBRANCH   3  14
BRANCH   5  16
HETATM   16  O   UNL     1      48.112  42.917  50.711  1.00  0.00    -0.378 OA
HETATM   17  H   UNL     1      48.758  43.354  50.118  1.00  0.00     0.211 HD
ENDBRANCH   5  16
TORSDOF 6
ENDMDL
MODEL 10
REMARK VINA RESULT:    -4.702      1.679      4.862
REMARK INTER + INTRA:          -5.904
REMARK INTER:                  -5.661
REMARK INTRA:                  -0.243
REMARK UNBOUND:                -0.239
REMARK  6 active torsions:
REMARK  status: ('A' for Active; 'I' for Inactive)
REMARK    1  A    between atoms: O_2  and  C_7 
REMARK    2  A    between atoms: O_3  and  C_8 
REMARK    3  A    between atoms: O_4  and  C_10 
REMARK    4  A    between atoms: O_5  and  C_11 
REMARK    5  A    between atoms: O_6  and  C_12 
REMARK    6  A    between atoms: C_9  and  C_12 
ROOT
HETATM    1  O   UNL     1      46.056  43.388  51.447  1.00  0.00    -0.327 OA
HETATM    2  C   UNL     1      45.248  43.063  49.158  1.00  0.00     0.170 C 
HETATM    3  C   UNL     1      46.676  43.282  48.645  1.00  0.00     0.172 C 
HETATM    4  C   UNL     1      45.053  43.787  50.498  1.00  0.00     0.176 C 
HETATM    5  C   UNL     1      47.697  42.927  49.722  1.00  0.00     0.197 C 
HETATM    6  C   UNL     1      47.376  43.704  51.010  1.00  0.00     0.263 C 
ENDROOT
BRANCH   4   7
HETATM    7  C   UNL     1      43.688  43.464  51.115  1.00  0.00     0.170 C 
BRANCH   7   8
HETATM    8  O   UNL     1      42.699  44.320  50.540  1.00  0.00    -0.380 OA
HETATM    9  H   UNL     1      42.686  45.120  51.104  1.00  0.00     0.211 HD
ENDBRANCH   7   8
ENDBRANCH   4   7
BRANCH   2  10
HETATM   10  O   UNL     1      44.327  43.502  48.155  1.00  0.00    -0.380 OA
HETATM   11  H   UNL     1      43.521  42.955  48.201  1.00  0.00     0.211 HD
ENDBRANCH   2  10
BRANCH   6  12
HETATM   12  O   UNL     1      48.298  43.349  52.032  1.00  0.00    -0.359 OA
HETATM   13  H   UNL     1      48.471  44.169  52.531  1.00  0.00     0.213 HD
ENDBRANCH   6  12
BRANCH   3  14
HETATM   14  O   UNL     1      46.920  42.476  47.482  1.00  0.00    -0.380 OA
HETATM   15  H   UNL     1      47.883  42.529  47.313  1.00  0.00     0.211 HD
ENDBRANCH   3  14
BRANCH   5  16
HETATM   16  O   UNL     1      49.022  43.229  49.267  1.00  0.00    -0.378 OA
HETATM   17  H   UNL     1      49.611  42.653  49.796  1.00  0.00     0.211 HD
ENDBRANCH   5  16
TORSDOF 6
ENDMDL
