MODEL 1
REMARK VINA RESULT:    -5.495      0.000      0.000
REMARK INTER + INTRA:          -6.865
REMARK INTER:                  -6.616
REMARK INTRA:                  -0.250
REMARK UNBOUND:                -0.247
REMARK  6 active torsions:
REMARK  status: ('A' for Active; 'I' for Inactive)
REMARK    1  A    between atoms: O_2  and  C_7 
REMARK    2  A    between atoms: O_3  and  C_8 
REMARK    3  A    between atoms: O_4  and  C_10 
REMARK    4  A    between atoms: O_5  and  C_11 
REMARK    5  A    between atoms: O_6  and  C_12 
REMARK    6  A    between atoms: C_9  and  C_12 
ROOT
HETATM    1  O   UNL     1      44.962  43.926  50.979  1.00  0.00    -0.327 OA
HETATM    2  C   UNL     1      46.248  43.803  48.899  1.00  0.00     0.170 C 
HETATM    3  C   UNL     1      45.000  43.276  48.182  1.00  0.00     0.172 C 
HETATM    4  C   UNL     1      46.186  43.453  50.393  1.00  0.00     0.176 C 
HETATM    5  C   UNL     1      43.732  43.736  48.897  1.00  0.00     0.197 C 
HETATM    6  C   UNL     1      43.808  43.339  50.382  1.00  0.00     0.263 C 
ENDROOT
BRANCH   4   7
HETATM    7  C   UNL     1      47.341  44.095  51.167  1.00  0.00     0.170 C 
BRANCH   7   8
HETATM    8  O   UNL     1      47.944  45.106  50.358  1.00  0.00    -0.380 OA
HETATM    9  H   UNL     1      48.812  45.290  50.773  1.00  0.00     0.211 HD
ENDBRANCH   7   8
ENDBRANCH   4   7
BRANCH   2  10
HETATM   10  O   UNL     1      47.408  43.265  48.256  1.00  0.00    -0.380 OA
HETATM   11  H   UNL     1      47.288  42.305  48.134  1.00  0.00     0.211 HD
ENDBRANCH   2  10
BRANCH   6  12
HETATM   12  O   UNL     1      42.650  43.800  51.065  1.00  0.00    -0.359 OA
HETATM   13  H   UNL     1      42.147  43.000  51.304  1.00  0.00     0.213 HD
ENDBRANCH   6  12
BRANCH   3  14
HETATM   14  O   UNL     1      44.967  43.740  46.824  1.00  0.00    -0.380 OA
HETATM   15  H   UNL     1      45.379  43.034  46.286  1.00  0.00     0.211 HD
ENDBRANCH   3  14
BRANCH   5  16
HETATM   16  O   UNL     1      42.577  43.157  48.279  1.00  0.00    -0.378 OA
HETATM   17  H   UNL     1      41.835  43.747  48.523  1.00  0.00     0.211 HD
ENDBRANCH   5  16
TORSDOF 6
ENDMDL
MODEL 2
REMARK VINA RESULT:    -5.221      1.403      4.603
REMARK INTER + INTRA:          -6.536
REMARK INTER:                  -6.290
REMARK INTRA:                  -0.247
REMARK UNBOUND:                -0.247
REMARK  6 active torsions:
REMARK  status: ('A' for Active; 'I' for Inactive)
REMARK    1  A    between atoms: O_2  and  C_7 
REMARK    2  A    between atoms: O_3  and  C_8 
REMARK    3  A    between atoms: O_4  and  C_10 
REMARK    4  A    between atoms: O_5  and  C_11 
REMARK    5  A    between atoms: O_6  and  C_12 
REMARK    6  A    between atoms: C_9  and  C_12 
ROOT
HETATM    1  O   UNL     1      45.858  44.091  49.000  1.00  0.00    -0.327 OA
HETATM    2  C   UNL     1      43.996  44.383  50.565  1.00  0.00     0.170 C 
HETATM    3  C   UNL     1      44.956  44.101  51.727  1.00  0.00     0.172 C 
HETATM    4  C   UNL     1      44.504  43.702  49.285  1.00  0.00     0.176 C 
HETATM    5  C   UNL     1      46.391  44.450  51.339  1.00  0.00     0.197 C 
HETATM    6  C   UNL     1      46.762  43.718  50.037  1.00  0.00     0.263 C 
ENDROOT
BRANCH   4   7
HETATM    7  C   UNL     1      43.653  44.087  48.072  1.00  0.00     0.170 C 
BRANCH   7   8
HETATM    8  O   UNL     1      42.441  43.331  48.089  1.00  0.00    -0.380 OA
HETATM    9  H   UNL     1      42.669  42.461  47.704  1.00  0.00     0.211 HD
ENDBRANCH   7   8
ENDBRANCH   4   7
BRANCH   2  10
HETATM   10  O   UNL     1      42.685  43.948  50.938  1.00  0.00    -0.380 OA
HETATM   11  H   UNL     1      42.155  44.724  51.200  1.00  0.00     0.211 HD
ENDBRANCH   2  10
BRANCH   6  12
HETATM   12  O   UNL     1      48.083  44.069  49.646  1.00  0.00    -0.359 OA
HETATM   13  H   UNL     1      47.983  44.670  48.884  1.00  0.00     0.213 HD
ENDBRANCH   6  12
BRANCH   3  14
HETATM   14  O   UNL     1      44.583  44.866  52.883  1.00  0.00    -0.380 OA
HETATM   15  H   UNL     1      44.552  44.233  53.629  1.00  0.00     0.211 HD
ENDBRANCH   3  14
BRANCH   5  16
HETATM   16  O   UNL     1      47.290  44.090  52.394  1.00  0.00    -0.378 OA
HETATM   17  H   UNL     1      48.163  43.990  51.962  1.00  0.00     0.211 HD
ENDBRANCH   5  16
TORSDOF 6
ENDMDL
MODEL 3
REMARK VINA RESULT:    -5.150      1.083      4.040
REMARK INTER + INTRA:          -6.451
REMARK INTER:                  -6.408
REMARK INTRA:                  -0.042
REMARK UNBOUND:                -0.247
REMARK  6 active torsions:
REMARK  status: ('A' for Active; 'I' for Inactive)
REMARK    1  A    between atoms: O_2  and  C_7 
REMARK    2  A    between atoms: O_3  and  C_8 
REMARK    3  A    between atoms: O_4  and  C_10 
REMARK    4  A    between atoms: O_5  and  C_11 
REMARK    5  A    between atoms: O_6  and  C_12 
REMARK    6  A    between atoms: C_9  and  C_12 
ROOT
HETATM    1  O   UNL     1      46.175  44.384  48.450  1.00  0.00    -0.327 OA
HETATM    2  C   UNL     1      43.773  43.964  48.688  1.00  0.00     0.170 C 
HETATM    3  C   UNL     1      43.978  43.759  50.193  1.00  0.00     0.172 C 
HETATM    4  C   UNL     1      45.067  43.631  47.929  1.00  0.00     0.176 C 
HETATM    5  C   UNL     1      45.218  44.509  50.675  1.00  0.00     0.197 C 
HETATM    6  C   UNL     1      46.430  44.098  49.823  1.00  0.00     0.263 C 
ENDROOT
BRANCH   4   7
HETATM    7  C   UNL     1      44.945  43.970  46.440  1.00  0.00     0.170 C 
BRANCH   7   8
HETATM    8  O   UNL     1      45.451  42.880  45.668  1.00  0.00    -0.380 OA
HETATM    9  H   UNL     1      44.662  42.389  45.360  1.00  0.00     0.211 HD
ENDBRANCH   7   8
ENDBRANCH   4   7
BRANCH   2  10
HETATM   10  O   UNL     1      42.665  43.165  48.263  1.00  0.00    -0.380 OA
HETATM   11  H   UNL     1      41.922  43.298  48.880  1.00  0.00     0.211 HD
ENDBRANCH   2  10
BRANCH   6  12
HETATM   12  O   UNL     1      47.581  44.822  50.239  1.00  0.00    -0.359 OA
HETATM   13  H   UNL     1      48.243  44.698  49.533  1.00  0.00     0.213 HD
ENDBRANCH   6  12
BRANCH   3  14
HETATM   14  O   UNL     1      42.834  44.225  50.923  1.00  0.00    -0.380 OA
HETATM   15  H   UNL     1      43.146  44.978  51.465  1.00  0.00     0.211 HD
ENDBRANCH   3  14
BRANCH   5  16
HETATM   16  O   UNL     1      45.456  44.231  52.061  1.00  0.00    -0.378 OA
HETATM   17  H   UNL     1      46.316  43.763  52.082  1.00  0.00     0.211 HD
ENDBRANCH   5  16
TORSDOF 6
ENDMDL
MODEL 4
REMARK VINA RESULT:    -5.097      1.600      3.122
REMARK INTER + INTRA:          -6.386
REMARK INTER:                  -6.166
REMARK INTRA:                  -0.221
REMARK UNBOUND:                -0.247
REMARK  6 active torsions:
REMARK  status: ('A' for Active; 'I' for Inactive)
REMARK    1  A    between atoms: O_2  and  C_7 
REMARK    2  A    between atoms: O_3  and  C_8 
REMARK    3  A    between atoms: O_4  and  C_10 
REMARK    4  A    between atoms: O_5  and  C_11 
REMARK    5  A    between atoms: O_6  and  C_12 
REMARK    6  A    between atoms: C_9  and  C_12 
ROOT
HETATM    1  O   UNL     1      43.045  44.033  50.398  1.00  0.00    -0.327 OA
HETATM    2  C   UNL     1      45.276  44.726  51.135  1.00  0.00     0.170 C 
HETATM    3  C   UNL     1      45.878  44.000  49.927  1.00  0.00     0.172 C 
HETATM    4  C   UNL     1      43.937  44.082  51.524  1.00  0.00     0.176 C 
HETATM    5  C   UNL     1      44.859  43.900  48.794  1.00  0.00     0.197 C 
HETATM    6  C   UNL     1      43.566  43.256  49.323  1.00  0.00     0.263 C 
ENDROOT
BRANCH   4   7
HETATM    7  C   UNL     1      43.234  44.875  52.630  1.00  0.00     0.170 C 
BRANCH   7   8
HETATM    8  O   UNL     1      43.515  46.266  52.461  1.00  0.00    -0.380 OA
HETATM    9  H   UNL     1      44.461  46.371  52.689  1.00  0.00     0.211 HD
ENDBRANCH   7   8
ENDBRANCH   4   7
BRANCH   2  10
HETATM   10  O   UNL     1      46.227  44.706  52.204  1.00  0.00    -0.380 OA
HETATM   11  H   UNL     1      46.555  43.795  52.320  1.00  0.00     0.211 HD
ENDBRANCH   2  10
BRANCH   6  12
HETATM   12  O   UNL     1      42.596  43.197  48.285  1.00  0.00    -0.359 OA
HETATM   13  H   UNL     1      42.995  43.657  47.523  1.00  0.00     0.213 HD
ENDBRANCH   6  12
BRANCH   3  14
HETATM   14  O   UNL     1      47.041  44.694  49.452  1.00  0.00    -0.380 OA
HETATM   15  H   UNL     1      47.170  45.453  50.057  1.00  0.00     0.211 HD
ENDBRANCH   3  14
BRANCH   5  16
HETATM   16  O   UNL     1      45.398  43.134  47.710  1.00  0.00    -0.378 OA
HETATM   17  H   UNL     1      44.669  42.543  47.429  1.00  0.00     0.211 HD
ENDBRANCH   5  16
TORSDOF 6
ENDMDL
MODEL 5
REMARK VINA RESULT:    -5.059      1.373      2.969
REMARK INTER + INTRA:          -6.341
REMARK INTER:                  -6.137
REMARK INTRA:                  -0.205
REMARK UNBOUND:                -0.247
REMARK  6 active torsions:
REMARK  status: ('A' for Active; 'I' for Inactive)
REMARK    1  A    between atoms: O_2  and  C_7 
REMARK    2  A    between atoms: O_3  and  C_8 
REMARK    3  A    between atoms: O_4  and  C_10 
REMARK    4  A    between atoms: O_5  and  C_11 
REMARK    5  A    between atoms: O_6  and  C_12 
REMARK    6  A    between atoms: C_9  and  C_12 
ROOT
HETATM    1  O   UNL     1      45.056  43.136  48.934  1.00  0.00    -0.327 OA
HETATM    2  C   UNL     1      46.081  43.481  51.131  1.00  0.00     0.170 C 
HETATM    3  C   UNL     1      44.726  43.957  51.666  1.00  0.00     0.172 C 
HETATM    4  C   UNL     1      46.169  43.733  49.619  1.00  0.00     0.176 C 
HETATM    5  C   UNL     1      43.583  43.361  50.847  1.00  0.00     0.197 C 
HETATM    6  C   UNL     1      43.804  43.671  49.357  1.00  0.00     0.263 C 
ENDROOT
BRANCH   4   7
HETATM    7  C   UNL     1      47.446  43.133  49.024  1.00  0.00     0.170 C 
BRANCH   7   8
HETATM    8  O   UNL     1      48.583  43.761  49.621  1.00  0.00    -0.380 OA
HETATM    9  H   UNL     1      48.423  44.723  49.540  1.00  0.00     0.211 HD
ENDBRANCH   7   8
ENDBRANCH   4   7
BRANCH   2  10
HETATM   10  O   UNL     1      47.120  44.141  51.861  1.00  0.00    -0.380 OA
HETATM   11  H   UNL     1      46.722  44.644  52.596  1.00  0.00     0.211 HD
ENDBRANCH   2  10
BRANCH   6  12
HETATM   12  O   UNL     1      42.766  43.084  48.582  1.00  0.00    -0.359 OA
HETATM   13  H   UNL     1      41.934  43.456  48.929  1.00  0.00     0.213 HD
ENDBRANCH   6  12
BRANCH   3  14
HETATM   14  O   UNL     1      44.567  43.576  53.040  1.00  0.00    -0.380 OA
HETATM   15  H   UNL     1      44.510  44.410  53.549  1.00  0.00     0.211 HD
ENDBRANCH   3  14
BRANCH   5  16
HETATM   16  O   UNL     1      42.327  43.890  51.292  1.00  0.00    -0.378 OA
HETATM   17  H   UNL     1      42.325  44.823  50.996  1.00  0.00     0.211 HD
ENDBRANCH   5  16
TORSDOF 6
ENDMDL
MODEL 6
REMARK VINA RESULT:    -4.995      1.311      4.433
REMARK INTER + INTRA:          -6.264
REMARK INTER:                  -6.231
REMARK INTRA:                  -0.034
REMARK UNBOUND:                -0.247
REMARK  6 active torsions:
REMARK  status: ('A' for Active; 'I' for Inactive)
REMARK    1  A    between atoms: O_2  and  C_7 
REMARK    2  A    between atoms: O_3  and  C_8 
REMARK    3  A    between atoms: O_4  and  C_10 
REMARK    4  A    between atoms: O_5  and  C_11 
REMARK    5  A    between atoms: O_6  and  C_12 
REMARK    6  A    between atoms: C_9  and  C_12 
ROOT
HETATM    1  O   UNL     1      45.327  43.291  47.842  1.00  0.00    -0.327 OA
HETATM    2  C   UNL     1      45.561  43.970  50.183  1.00  0.00     0.170 C 
HETATM    3  C   UNL     1      46.888  43.207  50.251  1.00  0.00     0.172 C 
HETATM    4  C   UNL     1      44.652  43.353  49.109  1.00  0.00     0.176 C 
HETATM    5  C   UNL     1      47.517  43.095  48.864  1.00  0.00     0.197 C 
HETATM    6  C   UNL     1      46.499  42.481  47.888  1.00  0.00     0.263 C 
ENDROOT
BRANCH   4   7
HETATM    7  C   UNL     1      43.380  44.183  48.909  1.00  0.00     0.170 C 
BRANCH   7   8
HETATM    8  O   UNL     1      42.433  43.418  48.161  1.00  0.00    -0.380 OA
HETATM    9  H   UNL     1      42.956  42.724  47.709  1.00  0.00     0.211 HD
ENDBRANCH   7   8
ENDBRANCH   4   7
BRANCH   2  10
HETATM   10  O   UNL     1      44.961  43.963  51.482  1.00  0.00    -0.380 OA
HETATM   11  H   UNL     1      44.162  44.522  51.467  1.00  0.00     0.211 HD
ENDBRANCH   2  10
BRANCH   6  12
HETATM   12  O   UNL     1      47.062  42.410  46.584  1.00  0.00    -0.359 OA
HETATM   13  H   UNL     1      46.490  41.801  46.080  1.00  0.00     0.213 HD
ENDBRANCH   6  12
BRANCH   3  14
HETATM   14  O   UNL     1      47.806  43.874  51.129  1.00  0.00    -0.380 OA
HETATM   15  H   UNL     1      47.942  43.271  51.889  1.00  0.00     0.211 HD
ENDBRANCH   3  14
BRANCH   5  16
HETATM   16  O   UNL     1      48.705  42.295  48.923  1.00  0.00    -0.378 OA
HETATM   17  H   UNL     1      48.638  41.801  49.765  1.00  0.00     0.211 HD
ENDBRANCH   5  16
TORSDOF 6
ENDMDL
MODEL 7
REMARK VINA RESULT:    -4.926      1.634      3.264
REMARK INTER + INTRA:          -6.180
REMARK INTER:                  -5.926
REMARK INTRA:                  -0.255
REMARK UNBOUND:                -0.247
REMARK  6 active torsions:
REMARK  status: ('A' for Active; 'I' for Inactive)
REMARK    1  A    between atoms: O_2  and  C_7 
REMARK    2  A    between atoms: O_3  and  C_8 
REMARK    3  A    between atoms: O_4  and  C_10 
REMARK    4  A    between atoms: O_5  and  C_11 
REMARK    5  A    between atoms: O_6  and  C_12 
REMARK    6  A    between atoms: C_9  and  C_12 
ROOT
HETATM    1  O   UNL     1      45.392  43.192  47.057  1.00  0.00    -0.327 OA
HETATM    2  C   UNL     1      45.194  43.317  49.496  1.00  0.00     0.170 C 
HETATM    3  C   UNL     1      44.011  44.278  49.330  1.00  0.00     0.172 C 
HETATM    4  C   UNL     1      46.123  43.409  48.276  1.00  0.00     0.176 C 
HETATM    5  C   UNL     1      43.326  44.064  47.983  1.00  0.00     0.197 C 
HETATM    6  C   UNL     1      44.369  44.164  46.856  1.00  0.00     0.263 C 
ENDROOT
BRANCH   4   7
HETATM    7  C   UNL     1      47.232  42.354  48.336  1.00  0.00     0.170 C 
BRANCH   7   8
HETATM    8  O   UNL     1      46.853  41.326  49.253  1.00  0.00    -0.380 OA
HETATM    9  H   UNL     1      47.691  40.993  49.633  1.00  0.00     0.211 HD
ENDBRANCH   7   8
ENDBRANCH   4   7
BRANCH   2  10
HETATM   10  O   UNL     1      45.864  43.621  50.723  1.00  0.00    -0.380 OA
HETATM   11  H   UNL     1      45.838  44.585  50.869  1.00  0.00     0.211 HD
ENDBRANCH   2  10
BRANCH   6  12
HETATM   12  O   UNL     1      43.747  43.925  45.600  1.00  0.00    -0.359 OA
HETATM   13  H   UNL     1      44.377  44.243  44.927  1.00  0.00     0.213 HD
ENDBRANCH   6  12
BRANCH   3  14
HETATM   14  O   UNL     1      43.053  44.080  50.380  1.00  0.00    -0.380 OA
HETATM   15  H   UNL     1      42.183  43.991  49.941  1.00  0.00     0.211 HD
ENDBRANCH   3  14
BRANCH   5  16
HETATM   16  O   UNL     1      42.287  45.032  47.797  1.00  0.00    -0.378 OA
HETATM   17  H   UNL     1      42.614  45.623  47.088  1.00  0.00     0.211 HD
ENDBRANCH   5  16
TORSDOF 6
ENDMDL
MODEL 8
REMARK VINA RESULT:    -4.828      1.515      3.652
REMARK INTER + INTRA:          -6.063
REMARK INTER:                  -6.008
REMARK INTRA:                  -0.054
REMARK UNBOUND:                -0.247
REMARK  6 active torsions:
REMARK  status: ('A' for Active; 'I' for Inactive)
REMARK    1  A    between atoms: O_2  and  C_7 
REMARK    2  A    between atoms: O_3  and  C_8 
REMARK    3  A    between atoms: O_4  and  C_10 
REMARK    4  A    between atoms: O_5  and  C_11 
REMARK    5  A    between atoms: O_6  and  C_12 
REMARK    6  A    between atoms: C_9  and  C_12 
ROOT
HETATM    1  O   UNL     1      44.717  44.092  49.704  1.00  0.00    -0.327 OA
HETATM    2  C   UNL     1      45.718  43.171  47.667  1.00  0.00     0.170 C 
HETATM    3  C   UNL     1      47.072  43.113  48.383  1.00  0.00     0.172 C 
HETATM    4  C   UNL     1      44.842  44.272  48.283  1.00  0.00     0.176 C 
HETATM    5  C   UNL     1      46.880  43.011  49.894  1.00  0.00     0.197 C 
HETATM    6  C   UNL     1      45.974  44.158  50.374  1.00  0.00     0.263 C 
ENDROOT
BRANCH   4   7
HETATM    7  C   UNL     1      43.428  44.257  47.695  1.00  0.00     0.170 C 
BRANCH   7   8
HETATM    8  O   UNL     1      42.678  43.204  48.303  1.00  0.00    -0.380 OA
HETATM    9  H   UNL     1      42.665  42.479  47.645  1.00  0.00     0.211 HD
ENDBRANCH   7   8
ENDBRANCH   4   7
BRANCH   2  10
HETATM   10  O   UNL     1      45.946  43.367  46.268  1.00  0.00    -0.380 OA
HETATM   11  H   UNL     1      45.406  44.119  45.960  1.00  0.00     0.211 HD
ENDBRANCH   2  10
BRANCH   6  12
HETATM   12  O   UNL     1      45.755  44.047  51.775  1.00  0.00    -0.359 OA
HETATM   13  H   UNL     1      44.951  43.504  51.876  1.00  0.00     0.213 HD
ENDBRANCH   6  12
BRANCH   3  14
HETATM   14  O   UNL     1      47.832  41.983  47.929  1.00  0.00    -0.380 OA
HETATM   15  H   UNL     1      47.190  41.377  47.506  1.00  0.00     0.211 HD
ENDBRANCH   3  14
BRANCH   5  16
HETATM   16  O   UNL     1      48.148  43.058  50.559  1.00  0.00    -0.378 OA
HETATM   17  H   UNL     1      47.944  43.326  51.478  1.00  0.00     0.211 HD
ENDBRANCH   5  16
TORSDOF 6
ENDMDL
MODEL 9
REMARK VINA RESULT:    -4.807      1.335      3.399
REMARK INTER + INTRA:          -6.037
REMARK INTER:                  -5.791
REMARK INTRA:                  -0.247
REMARK UNBOUND:                -0.247
REMARK  6 active torsions:
REMARK  status: ('A' for Active; 'I' for Inactive)
REMARK    1  A    between atoms: O_2  and  C_7 
REMARK    2  A    between atoms: O_3  and  C_8 
REMARK    3  A    between atoms: O_4  and  C_10 
REMARK    4  A    between atoms: O_5  and  C_11 
REMARK    5  A    between atoms: O_6  and  C_12 
REMARK    6  A    between atoms: C_9  and  C_12 
ROOT
HETATM    1  O   UNL     1      46.084  43.702  50.732  1.00  0.00    -0.327 OA
HETATM    2  C   UNL     1      43.637  43.623  50.675  1.00  0.00     0.170 C 
HETATM    3  C   UNL     1      43.686  43.808  49.155  1.00  0.00     0.172 C 
HETATM    4  C   UNL     1      44.887  44.236  51.322  1.00  0.00     0.176 C 
HETATM    5  C   UNL     1      45.014  43.304  48.593  1.00  0.00     0.197 C 
HETATM    6  C   UNL     1      46.176  43.982  49.338  1.00  0.00     0.263 C 
ENDROOT
BRANCH   4   7
HETATM    7  C   UNL     1      44.945  43.936  52.823  1.00  0.00     0.170 C 
BRANCH   7   8
HETATM    8  O   UNL     1      44.059  44.820  53.514  1.00  0.00    -0.380 OA
HETATM    9  H   UNL     1      44.632  45.372  54.083  1.00  0.00     0.211 HD
ENDBRANCH   7   8
ENDBRANCH   4   7
BRANCH   2  10
HETATM   10  O   UNL     1      42.423  44.199  51.168  1.00  0.00    -0.380 OA
HETATM   11  H   UNL     1      42.485  45.170  51.109  1.00  0.00     0.211 HD
ENDBRANCH   2  10
BRANCH   6  12
HETATM   12  O   UNL     1      47.417  43.488  48.849  1.00  0.00    -0.359 OA
HETATM   13  H   UNL     1      47.534  43.889  47.968  1.00  0.00     0.213 HD
ENDBRANCH   6  12
BRANCH   3  14
HETATM   14  O   UNL     1      42.611  43.095  48.527  1.00  0.00    -0.380 OA
HETATM   15  H   UNL     1      42.427  42.322  49.099  1.00  0.00     0.211 HD
ENDBRANCH   3  14
BRANCH   5  16
HETATM   16  O   UNL     1      45.090  43.572  47.187  1.00  0.00    -0.378 OA
HETATM   17  H   UNL     1      45.255  42.701  46.771  1.00  0.00     0.211 HD
ENDBRANCH   5  16
TORSDOF 6
ENDMDL
MODEL 10
REMARK VINA RESULT:    -4.767      1.194      2.973
REMARK INTER + INTRA:          -5.990
REMARK INTER:                  -5.736
REMARK INTRA:                  -0.253
REMARK UNBOUND:                -0.247
REMARK  6 active torsions:
REMARK  status: ('A' for Active; 'I' for Inactive)
REMARK    1  A    between atoms: O_2  and  C_7 
REMARK    2  A    between atoms: O_3  and  C_8 
REMARK    3  A    between atoms: O_4  and  C_10 
REMARK    4  A    between atoms: O_5  and  C_11 
REMARK    5  A    between atoms: O_6  and  C_12 
REMARK    6  A    between atoms: C_9  and  C_12 
ROOT
HETATM    1  O   UNL     1      46.163  43.646  48.976  1.00  0.00    -0.327 OA
HETATM    2  C   UNL     1      44.906  44.058  51.037  1.00  0.00     0.170 C 
HETATM    3  C   UNL     1      43.639  44.262  50.200  1.00  0.00     0.172 C 
HETATM    4  C   UNL     1      46.150  44.396  50.202  1.00  0.00     0.176 C 
HETATM    5  C   UNL     1      43.744  43.516  48.872  1.00  0.00     0.197 C 
HETATM    6  C   UNL     1      45.037  43.933  48.150  1.00  0.00     0.263 C 
ENDROOT
BRANCH   4   7
HETATM    7  C   UNL     1      47.440  44.058  50.957  1.00  0.00     0.170 C 
BRANCH   7   8
HETATM    8  O   UNL     1      47.134  43.176  52.038  1.00  0.00    -0.380 OA
HETATM    9  H   UNL     1      47.880  43.263  52.666  1.00  0.00     0.211 HD
ENDBRANCH   7   8
ENDBRANCH   4   7
BRANCH   2  10
HETATM   10  O   UNL     1      44.806  44.854  52.222  1.00  0.00    -0.380 OA
HETATM   11  H   UNL     1      45.699  45.144  52.487  1.00  0.00     0.211 HD
ENDBRANCH   2  10
BRANCH   6  12
HETATM   12  O   UNL     1      45.163  43.212  46.931  1.00  0.00    -0.359 OA
HETATM   13  H   UNL     1      44.863  43.820  46.230  1.00  0.00     0.213 HD
ENDBRANCH   6  12
BRANCH   3  14
HETATM   14  O   UNL     1      42.485  43.792  50.912  1.00  0.00    -0.380 OA
HETATM   15  H   UNL     1      42.811  43.116  51.541  1.00  0.00     0.211 HD
ENDBRANCH   3  14
BRANCH   5  16
HETATM   16  O   UNL     1      42.599  43.794  48.056  1.00  0.00    -0.378 OA
HETATM   17  H   UNL     1      42.598  43.093  47.372  1.00  0.00     0.211 HD
ENDBRANCH   5  16
TORSDOF 6
ENDMDL
