MODEL 1
REMARK VINA RESULT:    -5.614      0.000      0.000
REMARK INTER + INTRA:          -9.729
REMARK INTER:                  -8.240
REMARK INTRA:                  -1.489
REMARK UNBOUND:                -1.489
REMARK  12 active torsions:
REMARK  status: ('A' for Active; 'I' for Inactive)
REMARK    1  A    between atoms: O_1  and  C_12 
REMARK    2  A    between atoms: O_1  and  C_14 
REMARK    3  A    between atoms: O_4  and  C_13 
REMARK    4  A    between atoms: O_5  and  C_16 
REMARK    5  A    between atoms: O_6  and  C_17 
REMARK    6  A    between atoms: O_7  and  C_18 
REMARK    7  A    between atoms: O_8  and  C_19 
REMARK    8  A    between atoms: O_9  and  C_21 
REMARK    9  A    between atoms: O_10  and  C_22 
REMARK   10  A    between atoms: O_11  and  C_23 
REMARK   11  A    between atoms: C_15  and  C_22 
REMARK   12  A    between atoms: C_20  and  C_23 
ROOT
HETATM    1  O   UNL     1      43.707  40.103  45.014  1.00  0.00    -0.326 OA
ENDROOT
BRANCH   1   2
HETATM    2  C   UNL     1      43.226  39.093  45.924  1.00  0.00     0.177 C 
HETATM    3  C   UNL     1      44.356  38.646  46.877  1.00  0.00     0.172 C 
HETATM    4  C   UNL     1      43.819  37.815  48.048  1.00  0.00     0.197 C 
HETATM    5  C   UNL     1      42.611  38.504  48.698  1.00  0.00     0.263 C 
HETATM    6  O   UNL     1      41.602  38.788  47.744  1.00  0.00    -0.327 OA
HETATM    7  C   UNL     1      42.071  39.701  46.739  1.00  0.00     0.177 C 
BRANCH   3   8
HETATM    8  O   UNL     1      45.317  37.855  46.154  1.00  0.00    -0.380 OA
HETATM    9  H   UNL     1      46.132  37.877  46.696  1.00  0.00     0.211 HD
ENDBRANCH   3   8
BRANCH   4  10
HETATM   10  O   UNL     1      44.846  37.633  49.039  1.00  0.00    -0.378 OA
HETATM   11  H   UNL     1      44.493  38.040  49.853  1.00  0.00     0.211 HD
ENDBRANCH   4  10
BRANCH   5  12
HETATM   12  O   UNL     1      42.065  37.619  49.668  1.00  0.00    -0.359 OA
HETATM   13  H   UNL     1      41.164  37.425  49.359  1.00  0.00     0.213 HD
ENDBRANCH   5  12
BRANCH   7  14
HETATM   14  C   UNL     1      40.875  40.032  45.838  1.00  0.00     0.170 C 
BRANCH  14  15
HETATM   15  O   UNL     1      41.003  41.364  45.342  1.00  0.00    -0.380 OA
HETATM   16  H   UNL     1      41.750  41.759  45.834  1.00  0.00     0.211 HD
ENDBRANCH  14  15
ENDBRANCH   7  14
ENDBRANCH   1   2
BRANCH   1  17
HETATM   17  C   UNL     1      43.704  39.694  43.639  1.00  0.00     0.266 C 
HETATM   18  O   UNL     1      44.902  38.981  43.353  1.00  0.00    -0.326 OA
HETATM   19  C   UNL     1      44.924  38.486  41.994  1.00  0.00     0.176 C 
HETATM   20  C   UNL     1      44.981  39.683  41.033  1.00  0.00     0.170 C 
HETATM   21  C   UNL     1      43.753  40.579  41.288  1.00  0.00     0.172 C 
HETATM   22  C   UNL     1      43.628  40.962  42.768  1.00  0.00     0.197 C 
BRANCH  19  23
HETATM   23  C   UNL     1      46.138  37.564  41.865  1.00  0.00     0.170 C 
BRANCH  23  24
HETATM   24  O   UNL     1      47.269  38.183  42.482  1.00  0.00    -0.380 OA
HETATM   25  H   UNL     1      47.035  38.351  43.419  1.00  0.00     0.211 HD
ENDBRANCH  23  24
ENDBRANCH  19  23
BRANCH  20  26
HETATM   26  O   UNL     1      46.206  40.402  41.229  1.00  0.00    -0.380 OA
HETATM   27  H   UNL     1      46.398  40.448  42.180  1.00  0.00     0.211 HD
ENDBRANCH  20  26
BRANCH  21  28
HETATM   28  O   UNL     1      43.798  41.761  40.486  1.00  0.00    -0.380 OA
HETATM   29  H   UNL     1      44.387  42.383  40.955  1.00  0.00     0.211 HD
ENDBRANCH  21  28
BRANCH  22  30
HETATM   30  O   UNL     1      42.386  41.655  42.964  1.00  0.00    -0.378 OA
HETATM   31  H   UNL     1      42.168  41.559  43.911  1.00  0.00     0.211 HD
ENDBRANCH  22  30
ENDBRANCH   1  17
TORSDOF 12
ENDMDL
MODEL 2
REMARK VINA RESULT:    -5.234      9.599     11.197
REMARK INTER + INTRA:          -9.171
REMARK INTER:                  -7.913
REMARK INTRA:                  -1.258
REMARK UNBOUND:                -1.489
REMARK  12 active torsions:
REMARK  status: ('A' for Active; 'I' for Inactive)
REMARK    1  A    between atoms: O_1  and  C_12 
REMARK    2  A    between atoms: O_1  and  C_14 
REMARK    3  A    between atoms: O_4  and  C_13 
REMARK    4  A    between atoms: O_5  and  C_16 
REMARK    5  A    between atoms: O_6  and  C_17 
REMARK    6  A    between atoms: O_7  and  C_18 
REMARK    7  A    between atoms: O_8  and  C_19 
REMARK    8  A    between atoms: O_9  and  C_21 
REMARK    9  A    between atoms: O_10  and  C_22 
REMARK   10  A    between atoms: O_11  and  C_23 
REMARK   11  A    between atoms: C_15  and  C_22 
REMARK   12  A    between atoms: C_20  and  C_23 
ROOT
HETATM    1  O   UNL     1      42.928  48.275  38.336  1.00  0.00    -0.326 OA
ENDROOT
BRANCH   1   2
HETATM    2  C   UNL     1      41.779  47.572  37.820  1.00  0.00     0.177 C 
HETATM    3  C   UNL     1      41.707  46.149  38.415  1.00  0.00     0.172 C 
HETATM    4  C   UNL     1      40.353  45.485  38.142  1.00  0.00     0.197 C 
HETATM    5  C   UNL     1      39.198  46.433  38.496  1.00  0.00     0.263 C 
HETATM    6  O   UNL     1      39.323  47.675  37.825  1.00  0.00    -0.327 OA
HETATM    7  C   UNL     1      40.521  48.365  38.216  1.00  0.00     0.177 C 
BRANCH   3   8
HETATM    8  O   UNL     1      42.745  45.331  37.845  1.00  0.00    -0.380 OA
HETATM    9  H   UNL     1      43.560  45.871  37.896  1.00  0.00     0.211 HD
ENDBRANCH   3   8
BRANCH   4  10
HETATM   10  O   UNL     1      40.226  44.279  38.916  1.00  0.00    -0.378 OA
HETATM   11  H   UNL     1      39.461  43.808  38.534  1.00  0.00     0.211 HD
ENDBRANCH   4  10
BRANCH   5  12
HETATM   12  O   UNL     1      37.982  45.826  38.077  1.00  0.00    -0.359 OA
HETATM   13  H   UNL     1      38.245  44.992  37.654  1.00  0.00     0.213 HD
ENDBRANCH   5  12
BRANCH   7  14
HETATM   14  C   UNL     1      40.494  49.737  37.531  1.00  0.00     0.170 C 
BRANCH  14  15
HETATM   15  O   UNL     1      41.224  50.679  38.317  1.00  0.00    -0.380 OA
HETATM   16  H   UNL     1      42.088  50.782  37.873  1.00  0.00     0.211 HD
ENDBRANCH  14  15
ENDBRANCH   7  14
ENDBRANCH   1   2
BRANCH   1  17
HETATM   17  C   UNL     1      44.076  48.221  37.479  1.00  0.00     0.266 C 
HETATM   18  O   UNL     1      43.812  47.350  36.385  1.00  0.00    -0.326 OA
HETATM   19  C   UNL     1      44.914  47.309  35.450  1.00  0.00     0.176 C 
HETATM   20  C   UNL     1      46.123  46.659  36.140  1.00  0.00     0.170 C 
HETATM   21  C   UNL     1      46.476  47.484  37.394  1.00  0.00     0.172 C 
HETATM   22  C   UNL     1      45.258  47.680  38.306  1.00  0.00     0.197 C 
BRANCH  19  23
HETATM   23  C   UNL     1      44.442  46.526  34.223  1.00  0.00     0.170 C 
BRANCH  23  24
HETATM   24  O   UNL     1      43.451  45.575  34.622  1.00  0.00    -0.380 OA
HETATM   25  H   UNL     1      43.533  45.460  35.592  1.00  0.00     0.211 HD
ENDBRANCH  23  24
ENDBRANCH  19  23
BRANCH  20  26
HETATM   26  O   UNL     1      45.816  45.299  36.475  1.00  0.00    -0.380 OA
HETATM   27  H   UNL     1      46.182  44.714  35.791  1.00  0.00     0.211 HD
ENDBRANCH  20  26
BRANCH  21  28
HETATM   28  O   UNL     1      47.539  46.875  38.133  1.00  0.00    -0.380 OA
HETATM   29  H   UNL     1      47.722  47.474  38.883  1.00  0.00     0.211 HD
ENDBRANCH  21  28
BRANCH  22  30
HETATM   30  O   UNL     1      45.612  48.585  39.363  1.00  0.00    -0.378 OA
HETATM   31  H   UNL     1      46.425  48.224  39.768  1.00  0.00     0.211 HD
ENDBRANCH  22  30
ENDBRANCH   1  17
TORSDOF 12
ENDMDL
MODEL 3
REMARK VINA RESULT:    -5.145      1.710      6.788
REMARK INTER + INTRA:          -9.040
REMARK INTER:                  -7.841
REMARK INTRA:                  -1.199
REMARK UNBOUND:                -1.489
REMARK  12 active torsions:
REMARK  status: ('A' for Active; 'I' for Inactive)
REMARK    1  A    between atoms: O_1  and  C_12 
REMARK    2  A    between atoms: O_1  and  C_14 
REMARK    3  A    between atoms: O_4  and  C_13 
REMARK    4  A    between atoms: O_5  and  C_16 
REMARK    5  A    between atoms: O_6  and  C_17 
REMARK    6  A    between atoms: O_7  and  C_18 
REMARK    7  A    between atoms: O_8  and  C_19 
REMARK    8  A    between atoms: O_9  and  C_21 
REMARK    9  A    between atoms: O_10  and  C_22 
REMARK   10  A    between atoms: O_11  and  C_23 
REMARK   11  A    between atoms: C_15  and  C_22 
REMARK   12  A    between atoms: C_20  and  C_23 
ROOT
HETATM    1  O   UNL     1      44.562  38.222  44.749  1.00  0.00    -0.326 OA
ENDROOT
BRANCH   1   2
HETATM    2  C   UNL     1      43.887  38.772  43.599  1.00  0.00     0.177 C 
HETATM    3  C   UNL     1      43.730  40.301  43.748  1.00  0.00     0.172 C 
HETATM    4  C   UNL     1      43.306  40.962  42.431  1.00  0.00     0.197 C 
HETATM    5  C   UNL     1      44.184  40.475  41.269  1.00  0.00     0.263 C 
HETATM    6  O   UNL     1      44.183  39.061  41.176  1.00  0.00    -0.327 OA
HETATM    7  C   UNL     1      44.737  38.456  42.355  1.00  0.00     0.177 C 
BRANCH   3   8
HETATM    8  O   UNL     1      42.738  40.592  44.749  1.00  0.00    -0.380 OA
HETATM    9  H   UNL     1      42.624  39.760  45.253  1.00  0.00     0.211 HD
ENDBRANCH   3   8
BRANCH   4  10
HETATM   10  O   UNL     1      43.415  42.392  42.536  1.00  0.00    -0.378 OA
HETATM   11  H   UNL     1      42.576  42.740  42.177  1.00  0.00     0.211 HD
ENDBRANCH   4  10
BRANCH   5  12
HETATM   12  O   UNL     1      43.647  40.997  40.060  1.00  0.00    -0.359 OA
HETATM   13  H   UNL     1      43.025  41.691  40.334  1.00  0.00     0.213 HD
ENDBRANCH   5  12
BRANCH   7  14
HETATM   14  C   UNL     1      44.801  36.946  42.099  1.00  0.00     0.170 C 
BRANCH  14  15
HETATM   15  O   UNL     1      43.594  36.332  42.551  1.00  0.00    -0.380 OA
HETATM   16  H   UNL     1      43.114  36.066  41.743  1.00  0.00     0.211 HD
ENDBRANCH  14  15
ENDBRANCH   7  14
ENDBRANCH   1   2
BRANCH   1  17
HETATM   17  C   UNL     1      43.703  38.002  45.876  1.00  0.00     0.266 C 
HETATM   18  O   UNL     1      43.996  38.957  46.890  1.00  0.00    -0.326 OA
HETATM   19  C   UNL     1      43.113  38.824  48.027  1.00  0.00     0.176 C 
HETATM   20  C   UNL     1      43.389  37.478  48.713  1.00  0.00     0.170 C 
HETATM   21  C   UNL     1      43.164  36.348  47.689  1.00  0.00     0.172 C 
HETATM   22  C   UNL     1      43.969  36.579  46.404  1.00  0.00     0.197 C 
BRANCH  19  23
HETATM   23  C   UNL     1      43.371  40.021  48.946  1.00  0.00     0.170 C 
BRANCH  23  24
HETATM   24  O   UNL     1      43.130  39.636  50.302  1.00  0.00    -0.380 OA
HETATM   25  H   UNL     1      43.986  39.344  50.678  1.00  0.00     0.211 HD
ENDBRANCH  23  24
ENDBRANCH  19  23
BRANCH  20  26
HETATM   26  O   UNL     1      44.728  37.462  49.227  1.00  0.00    -0.380 OA
HETATM   27  H   UNL     1      44.739  36.972  50.066  1.00  0.00     0.211 HD
ENDBRANCH  20  26
BRANCH  21  28
HETATM   28  O   UNL     1      43.496  35.072  48.242  1.00  0.00    -0.380 OA
HETATM   29  H   UNL     1      44.114  35.251  48.978  1.00  0.00     0.211 HD
ENDBRANCH  21  28
BRANCH  22  30
HETATM   30  O   UNL     1      43.593  35.587  45.437  1.00  0.00    -0.378 OA
HETATM   31  H   UNL     1      44.195  34.830  45.577  1.00  0.00     0.211 HD
ENDBRANCH  22  30
ENDBRANCH   1  17
TORSDOF 12
ENDMDL
MODEL 4
REMARK VINA RESULT:    -5.065      1.742      6.581
REMARK INTER + INTRA:          -8.923
REMARK INTER:                  -7.495
REMARK INTRA:                  -1.428
REMARK UNBOUND:                -1.489
REMARK  12 active torsions:
REMARK  status: ('A' for Active; 'I' for Inactive)
REMARK    1  A    between atoms: O_1  and  C_12 
REMARK    2  A    between atoms: O_1  and  C_14 
REMARK    3  A    between atoms: O_4  and  C_13 
REMARK    4  A    between atoms: O_5  and  C_16 
REMARK    5  A    between atoms: O_6  and  C_17 
REMARK    6  A    between atoms: O_7  and  C_18 
REMARK    7  A    between atoms: O_8  and  C_19 
REMARK    8  A    between atoms: O_9  and  C_21 
REMARK    9  A    between atoms: O_10  and  C_22 
REMARK   10  A    between atoms: O_11  and  C_23 
REMARK   11  A    between atoms: C_15  and  C_22 
REMARK   12  A    between atoms: C_20  and  C_23 
ROOT
HETATM    1  O   UNL     1      45.250  37.966  44.668  1.00  0.00    -0.326 OA
ENDROOT
BRANCH   1   2
HETATM    2  C   UNL     1      44.399  38.298  43.551  1.00  0.00     0.177 C 
HETATM    3  C   UNL     1      44.385  39.824  43.320  1.00  0.00     0.172 C 
HETATM    4  C   UNL     1      43.753  40.191  41.972  1.00  0.00     0.197 C 
HETATM    5  C   UNL     1      44.342  39.333  40.842  1.00  0.00     0.263 C 
HETATM    6  O   UNL     1      44.221  37.950  41.124  1.00  0.00    -0.327 OA
HETATM    7  C   UNL     1      44.956  37.588  42.305  1.00  0.00     0.177 C 
BRANCH   3   8
HETATM    8  O   UNL     1      43.638  40.468  44.368  1.00  0.00    -0.380 OA
HETATM    9  H   UNL     1      42.710  40.187  44.236  1.00  0.00     0.211 HD
ENDBRANCH   3   8
BRANCH   4  10
HETATM   10  O   UNL     1      43.983  41.580  41.677  1.00  0.00    -0.378 OA
HETATM   11  H   UNL     1      43.121  41.924  41.374  1.00  0.00     0.211 HD
ENDBRANCH   4  10
BRANCH   5  12
HETATM   12  O   UNL     1      43.611  39.607  39.653  1.00  0.00    -0.359 OA
HETATM   13  H   UNL     1      43.109  40.416  39.841  1.00  0.00     0.213 HD
ENDBRANCH   5  12
BRANCH   7  14
HETATM   14  C   UNL     1      44.859  36.065  42.446  1.00  0.00     0.170 C 
BRANCH  14  15
HETATM   15  O   UNL     1      43.694  35.727  43.198  1.00  0.00    -0.380 OA
HETATM   16  H   UNL     1      43.072  35.328  42.559  1.00  0.00     0.211 HD
ENDBRANCH  14  15
ENDBRANCH   7  14
ENDBRANCH   1   2
BRANCH   1  17
HETATM   17  C   UNL     1      44.535  37.561  45.843  1.00  0.00     0.266 C 
HETATM   18  O   UNL     1      43.136  37.671  45.610  1.00  0.00    -0.326 OA
HETATM   19  C   UNL     1      42.362  37.211  46.742  1.00  0.00     0.176 C 
HETATM   20  C   UNL     1      42.604  38.162  47.924  1.00  0.00     0.170 C 
HETATM   21  C   UNL     1      44.112  38.182  48.241  1.00  0.00     0.172 C 
HETATM   22  C   UNL     1      44.949  38.497  46.995  1.00  0.00     0.197 C 
BRANCH  19  23
HETATM   23  C   UNL     1      40.896  37.168  46.305  1.00  0.00     0.170 C 
BRANCH  23  24
HETATM   24  O   UNL     1      40.060  37.454  47.429  1.00  0.00    -0.380 OA
HETATM   25  H   UNL     1      39.392  36.740  47.484  1.00  0.00     0.211 HD
ENDBRANCH  23  24
ENDBRANCH  19  23
BRANCH  20  26
HETATM   26  O   UNL     1      42.118  39.471  47.598  1.00  0.00    -0.380 OA
HETATM   27  H   UNL     1      42.546  40.121  48.180  1.00  0.00     0.211 HD
ENDBRANCH  20  26
BRANCH  21  28
HETATM   28  O   UNL     1      44.413  39.122  49.275  1.00  0.00    -0.380 OA
HETATM   29  H   UNL     1      43.680  39.768  49.272  1.00  0.00     0.211 HD
ENDBRANCH  21  28
BRANCH  22  30
HETATM   30  O   UNL     1      46.339  38.341  47.319  1.00  0.00    -0.378 OA
HETATM   31  H   UNL     1      46.642  39.212  47.639  1.00  0.00     0.211 HD
ENDBRANCH  22  30
ENDBRANCH   1  17
TORSDOF 12
ENDMDL
MODEL 5
REMARK VINA RESULT:    -5.027     24.014     25.997
REMARK INTER + INTRA:          -8.867
REMARK INTER:                  -7.351
REMARK INTRA:                  -1.517
REMARK UNBOUND:                -1.489
REMARK  12 active torsions:
REMARK  status: ('A' for Active; 'I' for Inactive)
REMARK    1  A    between atoms: O_1  and  C_12 
REMARK    2  A    between atoms: O_1  and  C_14 
REMARK    3  A    between atoms: O_4  and  C_13 
REMARK    4  A    between atoms: O_5  and  C_16 
REMARK    5  A    between atoms: O_6  and  C_17 
REMARK    6  A    between atoms: O_7  and  C_18 
REMARK    7  A    between atoms: O_8  and  C_19 
REMARK    8  A    between atoms: O_9  and  C_21 
REMARK    9  A    between atoms: O_10  and  C_22 
REMARK   10  A    between atoms: O_11  and  C_23 
REMARK   11  A    between atoms: C_15  and  C_22 
REMARK   12  A    between atoms: C_20  and  C_23 
ROOT
HETATM    1  O   UNL     1      38.731  57.663  59.483  1.00  0.00    -0.326 OA
ENDROOT
BRANCH   1   2
HETATM    2  C   UNL     1      37.476  57.473  58.798  1.00  0.00     0.177 C 
HETATM    3  C   UNL     1      36.352  57.168  59.811  1.00  0.00     0.172 C 
HETATM    4  C   UNL     1      34.963  57.267  59.169  1.00  0.00     0.197 C 
HETATM    5  C   UNL     1      34.824  58.569  58.366  1.00  0.00     0.263 C 
HETATM    6  O   UNL     1      35.861  58.699  57.408  1.00  0.00    -0.327 OA
HETATM    7  C   UNL     1      37.151  58.771  58.037  1.00  0.00     0.177 C 
BRANCH   3   8
HETATM    8  O   UNL     1      36.521  55.839  60.339  1.00  0.00    -0.380 OA
HETATM    9  H   UNL     1      37.082  55.371  59.688  1.00  0.00     0.211 HD
ENDBRANCH   3   8
BRANCH   4  10
HETATM   10  O   UNL     1      33.943  57.227  60.182  1.00  0.00    -0.378 OA
HETATM   11  H   UNL     1      33.142  56.902  59.728  1.00  0.00     0.211 HD
ENDBRANCH   4  10
BRANCH   5  12
HETATM   12  O   UNL     1      33.584  58.530  57.671  1.00  0.00    -0.359 OA
HETATM   13  H   UNL     1      33.052  57.862  58.133  1.00  0.00     0.213 HD
ENDBRANCH   5  12
BRANCH   7  14
HETATM   14  C   UNL     1      38.178  59.034  56.929  1.00  0.00     0.170 C 
BRANCH  14  15
HETATM   15  O   UNL     1      39.106  60.028  57.363  1.00  0.00    -0.380 OA
HETATM   16  H   UNL     1      38.664  60.502  58.094  1.00  0.00     0.211 HD
ENDBRANCH  14  15
ENDBRANCH   7  14
ENDBRANCH   1   2
BRANCH   1  17
HETATM   17  C   UNL     1      38.664  58.594  60.572  1.00  0.00     0.266 C 
HETATM   18  O   UNL     1      39.375  59.778  60.231  1.00  0.00    -0.326 OA
HETATM   19  C   UNL     1      39.284  60.780  61.269  1.00  0.00     0.176 C 
HETATM   20  C   UNL     1      40.020  60.268  62.516  1.00  0.00     0.170 C 
HETATM   21  C   UNL     1      39.376  58.938  62.957  1.00  0.00     0.172 C 
HETATM   22  C   UNL     1      39.311  57.930  61.803  1.00  0.00     0.197 C 
BRANCH  19  23
HETATM   23  C   UNL     1      39.890  62.070  60.712  1.00  0.00     0.170 C 
BRANCH  23  24
HETATM   24  O   UNL     1      40.165  61.899  59.319  1.00  0.00    -0.380 OA
HETATM   25  H   UNL     1      39.869  60.998  59.072  1.00  0.00     0.211 HD
ENDBRANCH  23  24
ENDBRANCH  19  23
BRANCH  20  26
HETATM   26  O   UNL     1      41.414  60.105  62.223  1.00  0.00    -0.380 OA
HETATM   27  H   UNL     1      41.523  59.361  61.607  1.00  0.00     0.211 HD
ENDBRANCH  20  26
BRANCH  21  28
HETATM   28  O   UNL     1      40.078  58.362  64.061  1.00  0.00    -0.380 OA
HETATM   29  H   UNL     1      40.578  57.605  63.697  1.00  0.00     0.211 HD
ENDBRANCH  21  28
BRANCH  22  30
HETATM   30  O   UNL     1      38.560  56.783  62.231  1.00  0.00    -0.378 OA
HETATM   31  H   UNL     1      39.131  56.008  62.064  1.00  0.00     0.211 HD
ENDBRANCH  22  30
ENDBRANCH   1  17
TORSDOF 12
ENDMDL
MODEL 6
REMARK VINA RESULT:    -4.939      4.075      6.759
REMARK INTER + INTRA:          -8.738
REMARK INTER:                  -7.546
REMARK INTRA:                  -1.192
REMARK UNBOUND:                -1.489
REMARK  12 active torsions:
REMARK  status: ('A' for Active; 'I' for Inactive)
REMARK    1  A    between atoms: O_1  and  C_12 
REMARK    2  A    between atoms: O_1  and  C_14 
REMARK    3  A    between atoms: O_4  and  C_13 
REMARK    4  A    between atoms: O_5  and  C_16 
REMARK    5  A    between atoms: O_6  and  C_17 
REMARK    6  A    between atoms: O_7  and  C_18 
REMARK    7  A    between atoms: O_8  and  C_19 
REMARK    8  A    between atoms: O_9  and  C_21 
REMARK    9  A    between atoms: O_10  and  C_22 
REMARK   10  A    between atoms: O_11  and  C_23 
REMARK   11  A    between atoms: C_15  and  C_22 
REMARK   12  A    between atoms: C_20  and  C_23 
ROOT
HETATM    1  O   UNL     1      41.751  35.632  46.124  1.00  0.00    -0.326 OA
ENDROOT
BRANCH   1   2
HETATM    2  C   UNL     1      40.427  35.715  46.690  1.00  0.00     0.177 C 
HETATM    3  C   UNL     1      39.711  36.990  46.196  1.00  0.00     0.172 C 
HETATM    4  C   UNL     1      38.211  36.962  46.517  1.00  0.00     0.197 C 
HETATM    5  C   UNL     1      37.588  35.622  46.097  1.00  0.00     0.263 C 
HETATM    6  O   UNL     1      38.275  34.528  46.679  1.00  0.00    -0.327 OA
HETATM    7  C   UNL     1      39.642  34.471  46.240  1.00  0.00     0.177 C 
BRANCH   3   8
HETATM    8  O   UNL     1      40.293  38.148  46.822  1.00  0.00    -0.380 OA
HETATM    9  H   UNL     1      39.801  38.266  47.660  1.00  0.00     0.211 HD
ENDBRANCH   3   8
BRANCH   4  10
HETATM   10  O   UNL     1      37.537  38.030  45.830  1.00  0.00    -0.378 OA
HETATM   11  H   UNL     1      36.588  37.898  46.019  1.00  0.00     0.211 HD
ENDBRANCH   4  10
BRANCH   5  12
HETATM   12  O   UNL     1      36.244  35.596  46.559  1.00  0.00    -0.359 OA
HETATM   13  H   UNL     1      35.955  36.523  46.562  1.00  0.00     0.213 HD
ENDBRANCH   5  12
BRANCH   7  14
HETATM   14  C   UNL     1      40.250  33.191  46.826  1.00  0.00     0.170 C 
BRANCH  14  15
HETATM   15  O   UNL     1      40.919  33.496  48.050  1.00  0.00    -0.380 OA
HETATM   16  H   UNL     1      40.586  32.850  48.702  1.00  0.00     0.211 HD
ENDBRANCH  14  15
ENDBRANCH   7  14
ENDBRANCH   1   2
BRANCH   1  17
HETATM   17  C   UNL     1      42.798  35.963  47.046  1.00  0.00     0.266 C 
HETATM   18  O   UNL     1      42.237  36.565  48.207  1.00  0.00    -0.326 OA
HETATM   19  C   UNL     1      43.244  36.860  49.202  1.00  0.00     0.176 C 
HETATM   20  C   UNL     1      44.179  37.948  48.652  1.00  0.00     0.170 C 
HETATM   21  C   UNL     1      44.812  37.437  47.342  1.00  0.00     0.172 C 
HETATM   22  C   UNL     1      43.747  36.956  46.348  1.00  0.00     0.197 C 
BRANCH  19  23
HETATM   23  C   UNL     1      42.514  37.295  50.474  1.00  0.00     0.170 C 
BRANCH  23  24
HETATM   24  O   UNL     1      43.171  38.438  51.029  1.00  0.00    -0.380 OA
HETATM   25  H   UNL     1      42.927  38.482  51.977  1.00  0.00     0.211 HD
ENDBRANCH  23  24
ENDBRANCH  19  23
BRANCH  20  26
HETATM   26  O   UNL     1      43.441  39.159  48.441  1.00  0.00    -0.380 OA
HETATM   27  H   UNL     1      43.478  39.698  49.249  1.00  0.00     0.211 HD
ENDBRANCH  20  26
BRANCH  21  28
HETATM   28  O   UNL     1      45.623  38.444  46.731  1.00  0.00    -0.380 OA
HETATM   29  H   UNL     1      46.337  37.967  46.265  1.00  0.00     0.211 HD
ENDBRANCH  21  28
BRANCH  22  30
HETATM   30  O   UNL     1      44.404  36.348  45.225  1.00  0.00    -0.378 OA
HETATM   31  H   UNL     1      44.839  37.075  44.739  1.00  0.00     0.211 HD
ENDBRANCH  22  30
ENDBRANCH   1  17
TORSDOF 12
ENDMDL
MODEL 7
REMARK VINA RESULT:    -4.813      3.350      7.750
REMARK INTER + INTRA:          -8.553
REMARK INTER:                  -7.082
REMARK INTRA:                  -1.471
REMARK UNBOUND:                -1.489
REMARK  12 active torsions:
REMARK  status: ('A' for Active; 'I' for Inactive)
REMARK    1  A    between atoms: O_1  and  C_12 
REMARK    2  A    between atoms: O_1  and  C_14 
REMARK    3  A    between atoms: O_4  and  C_13 
REMARK    4  A    between atoms: O_5  and  C_16 
REMARK    5  A    between atoms: O_6  and  C_17 
REMARK    6  A    between atoms: O_7  and  C_18 
REMARK    7  A    between atoms: O_8  and  C_19 
REMARK    8  A    between atoms: O_9  and  C_21 
REMARK    9  A    between atoms: O_10  and  C_22 
REMARK   10  A    between atoms: O_11  and  C_23 
REMARK   11  A    between atoms: C_15  and  C_22 
REMARK   12  A    between atoms: C_20  and  C_23 
ROOT
HETATM    1  O   UNL     1      47.338  37.886  40.288  1.00  0.00    -0.326 OA
ENDROOT
BRANCH   1   2
HETATM    2  C   UNL     1      48.561  37.187  40.596  1.00  0.00     0.177 C 
HETATM    3  C   UNL     1      48.356  35.662  40.466  1.00  0.00     0.172 C 
HETATM    4  C   UNL     1      49.689  34.905  40.478  1.00  0.00     0.197 C 
HETATM    5  C   UNL     1      50.690  35.545  39.506  1.00  0.00     0.263 C 
HETATM    6  O   UNL     1      50.863  36.925  39.775  1.00  0.00    -0.327 OA
HETATM    7  C   UNL     1      49.637  37.653  39.600  1.00  0.00     0.177 C 
BRANCH   3   8
HETATM    8  O   UNL     1      47.546  35.186  41.557  1.00  0.00    -0.380 OA
HETATM    9  H   UNL     1      46.625  35.415  41.316  1.00  0.00     0.211 HD
ENDBRANCH   3   8
BRANCH   4  10
HETATM   10  O   UNL     1      49.483  33.531  40.105  1.00  0.00    -0.378 OA
HETATM   11  H   UNL     1      48.515  33.428  40.027  1.00  0.00     0.211 HD
ENDBRANCH   4  10
BRANCH   5  12
HETATM   12  O   UNL     1      51.946  34.901  39.677  1.00  0.00    -0.359 OA
HETATM   13  H   UNL     1      51.963  34.192  39.013  1.00  0.00     0.213 HD
ENDBRANCH   5  12
BRANCH   7  14
HETATM   14  C   UNL     1      49.963  39.139  39.794  1.00  0.00     0.170 C 
BRANCH  14  15
HETATM   15  O   UNL     1      49.133  39.927  38.942  1.00  0.00    -0.380 OA
HETATM   16  H   UNL     1      49.705  40.210  38.202  1.00  0.00     0.211 HD
ENDBRANCH  14  15
ENDBRANCH   7  14
ENDBRANCH   1   2
BRANCH   1  17
HETATM   17  C   UNL     1      46.800  38.630  41.389  1.00  0.00     0.266 C 
HETATM   18  O   UNL     1      46.013  37.770  42.206  1.00  0.00    -0.326 OA
HETATM   19  C   UNL     1      45.499  38.454  43.371  1.00  0.00     0.176 C 
HETATM   20  C   UNL     1      44.500  39.527  42.914  1.00  0.00     0.170 C 
HETATM   21  C   UNL     1      45.222  40.500  41.961  1.00  0.00     0.172 C 
HETATM   22  C   UNL     1      45.921  39.757  40.815  1.00  0.00     0.197 C 
BRANCH  19  23
HETATM   23  C   UNL     1      44.862  37.396  44.275  1.00  0.00     0.170 C 
BRANCH  23  24
HETATM   24  O   UNL     1      43.807  37.996  45.032  1.00  0.00    -0.380 OA
HETATM   25  H   UNL     1      43.177  38.389  44.393  1.00  0.00     0.211 HD
ENDBRANCH  23  24
ENDBRANCH  19  23
BRANCH  20  26
HETATM   26  O   UNL     1      43.378  38.902  42.275  1.00  0.00    -0.380 OA
HETATM   27  H   UNL     1      43.328  39.206  41.354  1.00  0.00     0.211 HD
ENDBRANCH  20  26
BRANCH  21  28
HETATM   28  O   UNL     1      44.318  41.470  41.428  1.00  0.00    -0.380 OA
HETATM   29  H   UNL     1      43.445  41.033  41.392  1.00  0.00     0.211 HD
ENDBRANCH  21  28
BRANCH  22  30
HETATM   30  O   UNL     1      46.703  40.698  40.064  1.00  0.00    -0.378 OA
HETATM   31  H   UNL     1      46.064  41.262  39.587  1.00  0.00     0.211 HD
ENDBRANCH  22  30
ENDBRANCH   1  17
TORSDOF 12
ENDMDL
MODEL 8
REMARK VINA RESULT:    -4.760      5.275      8.846
REMARK INTER + INTRA:          -8.475
REMARK INTER:                  -7.011
REMARK INTRA:                  -1.464
REMARK UNBOUND:                -1.489
REMARK  12 active torsions:
REMARK  status: ('A' for Active; 'I' for Inactive)
REMARK    1  A    between atoms: O_1  and  C_12 
REMARK    2  A    between atoms: O_1  and  C_14 
REMARK    3  A    between atoms: O_4  and  C_13 
REMARK    4  A    between atoms: O_5  and  C_16 
REMARK    5  A    between atoms: O_6  and  C_17 
REMARK    6  A    between atoms: O_7  and  C_18 
REMARK    7  A    between atoms: O_8  and  C_19 
REMARK    8  A    between atoms: O_9  and  C_21 
REMARK    9  A    between atoms: O_10  and  C_22 
REMARK   10  A    between atoms: O_11  and  C_23 
REMARK   11  A    between atoms: C_15  and  C_22 
REMARK   12  A    between atoms: C_20  and  C_23 
ROOT
HETATM    1  O   UNL     1      48.046  35.463  41.308  1.00  0.00    -0.326 OA
ENDROOT
BRANCH   1   2
HETATM    2  C   UNL     1      48.153  36.675  40.534  1.00  0.00     0.177 C 
HETATM    3  C   UNL     1      47.485  37.850  41.281  1.00  0.00     0.172 C 
HETATM    4  C   UNL     1      47.842  39.202  40.652  1.00  0.00     0.197 C 
HETATM    5  C   UNL     1      49.356  39.313  40.419  1.00  0.00     0.263 C 
HETATM    6  O   UNL     1      49.842  38.227  39.649  1.00  0.00    -0.327 OA
HETATM    7  C   UNL     1      49.648  36.975  40.327  1.00  0.00     0.177 C 
BRANCH   3   8
HETATM    8  O   UNL     1      46.054  37.693  41.253  1.00  0.00    -0.380 OA
HETATM    9  H   UNL     1      45.709  38.527  40.875  1.00  0.00     0.211 HD
ENDBRANCH   3   8
BRANCH   4  10
HETATM   10  O   UNL     1      47.418  40.276  41.510  1.00  0.00    -0.378 OA
HETATM   11  H   UNL     1      46.870  39.854  42.199  1.00  0.00     0.211 HD
ENDBRANCH   4  10
BRANCH   5  12
HETATM   12  O   UNL     1      49.605  40.512  39.696  1.00  0.00    -0.359 OA
HETATM   13  H   UNL     1      50.225  40.262  38.991  1.00  0.00     0.213 HD
ENDBRANCH   5  12
BRANCH   7  14
HETATM   14  C   UNL     1      50.315  35.891  39.471  1.00  0.00     0.170 C 
BRANCH  14  15
HETATM   15  O   UNL     1      50.631  34.764  40.286  1.00  0.00    -0.380 OA
HETATM   16  H   UNL     1      51.397  34.334  39.859  1.00  0.00     0.211 HD
ENDBRANCH  14  15
ENDBRANCH   7  14
ENDBRANCH   1   2
BRANCH   1  17
HETATM   17  C   UNL     1      46.956  34.618  40.916  1.00  0.00     0.266 C 
HETATM   18  O   UNL     1      45.859  34.816  41.801  1.00  0.00    -0.326 OA
HETATM   19  C   UNL     1      44.705  34.036  41.412  1.00  0.00     0.176 C 
HETATM   20  C   UNL     1      45.036  32.546  41.582  1.00  0.00     0.170 C 
HETATM   21  C   UNL     1      46.263  32.211  40.711  1.00  0.00     0.172 C 
HETATM   22  C   UNL     1      47.437  33.156  40.998  1.00  0.00     0.197 C 
BRANCH  19  23
HETATM   23  C   UNL     1      43.534  34.487  42.289  1.00  0.00     0.170 C 
BRANCH  23  24
HETATM   24  O   UNL     1      44.037  34.953  43.544  1.00  0.00    -0.380 OA
HETATM   25  H   UNL     1      44.659  34.274  43.878  1.00  0.00     0.211 HD
ENDBRANCH  23  24
ENDBRANCH  19  23
BRANCH  20  26
HETATM   26  O   UNL     1      45.280  32.259  42.966  1.00  0.00    -0.380 OA
HETATM   27  H   UNL     1      45.229  31.299  43.104  1.00  0.00     0.211 HD
ENDBRANCH  20  26
BRANCH  21  28
HETATM   28  O   UNL     1      46.678  30.856  40.898  1.00  0.00    -0.380 OA
HETATM   29  H   UNL     1      47.558  30.900  41.320  1.00  0.00     0.211 HD
ENDBRANCH  21  28
BRANCH  22  30
HETATM   30  O   UNL     1      48.482  32.898  40.048  1.00  0.00    -0.378 OA
HETATM   31  H   UNL     1      48.554  33.702  39.499  1.00  0.00     0.211 HD
ENDBRANCH  22  30
ENDBRANCH   1  17
TORSDOF 12
ENDMDL
MODEL 9
REMARK VINA RESULT:    -4.701     11.858     14.326
REMARK INTER + INTRA:          -8.388
REMARK INTER:                  -7.057
REMARK INTRA:                  -1.331
REMARK UNBOUND:                -1.489
REMARK  12 active torsions:
REMARK  status: ('A' for Active; 'I' for Inactive)
REMARK    1  A    between atoms: O_1  and  C_12 
REMARK    2  A    between atoms: O_1  and  C_14 
REMARK    3  A    between atoms: O_4  and  C_13 
REMARK    4  A    between atoms: O_5  and  C_16 
REMARK    5  A    between atoms: O_6  and  C_17 
REMARK    6  A    between atoms: O_7  and  C_18 
REMARK    7  A    between atoms: O_8  and  C_19 
REMARK    8  A    between atoms: O_9  and  C_21 
REMARK    9  A    between atoms: O_10  and  C_22 
REMARK   10  A    between atoms: O_11  and  C_23 
REMARK   11  A    between atoms: C_15  and  C_22 
REMARK   12  A    between atoms: C_20  and  C_23 
ROOT
HETATM    1  O   UNL     1      54.440  30.697  50.255  1.00  0.00    -0.326 OA
ENDROOT
BRANCH   1   2
HETATM    2  C   UNL     1      53.058  30.352  50.027  1.00  0.00     0.177 C 
HETATM    3  C   UNL     1      52.183  31.623  50.009  1.00  0.00     0.172 C 
HETATM    4  C   UNL     1      50.777  31.339  49.466  1.00  0.00     0.197 C 
HETATM    5  C   UNL     1      50.848  30.539  48.157  1.00  0.00     0.263 C 
HETATM    6  O   UNL     1      51.603  29.351  48.317  1.00  0.00    -0.327 OA
HETATM    7  C   UNL     1      52.967  29.638  48.667  1.00  0.00     0.177 C 
BRANCH   3   8
HETATM    8  O   UNL     1      52.064  32.151  51.342  1.00  0.00    -0.380 OA
HETATM    9  H   UNL     1      52.893  31.899  51.797  1.00  0.00     0.211 HD
ENDBRANCH   3   8
BRANCH   4  10
HETATM   10  O   UNL     1      50.079  32.574  49.226  1.00  0.00    -0.378 OA
HETATM   11  H   UNL     1      50.718  33.144  48.758  1.00  0.00     0.211 HD
ENDBRANCH   4  10
BRANCH   5  12
HETATM   12  O   UNL     1      49.523  30.174  47.790  1.00  0.00    -0.359 OA
HETATM   13  H   UNL     1      49.415  29.259  48.097  1.00  0.00     0.213 HD
ENDBRANCH   5  12
BRANCH   7  14
HETATM   14  C   UNL     1      53.716  28.301  48.693  1.00  0.00     0.170 C 
BRANCH  14  15
HETATM   15  O   UNL     1      55.065  28.499  48.271  1.00  0.00    -0.380 OA
HETATM   16  H   UNL     1      55.468  29.088  48.939  1.00  0.00     0.211 HD
ENDBRANCH  14  15
ENDBRANCH   7  14
ENDBRANCH   1   2
BRANCH   1  17
HETATM   17  C   UNL     1      54.901  31.801  49.465  1.00  0.00     0.266 C 
HETATM   18  O   UNL     1      55.795  31.329  48.463  1.00  0.00    -0.326 OA
HETATM   19  C   UNL     1      56.240  32.393  47.592  1.00  0.00     0.176 C 
HETATM   20  C   UNL     1      57.101  33.371  48.407  1.00  0.00     0.170 C 
HETATM   21  C   UNL     1      56.256  33.914  49.577  1.00  0.00     0.172 C 
HETATM   22  C   UNL     1      55.635  32.780  50.401  1.00  0.00     0.197 C 
BRANCH  19  23
HETATM   23  C   UNL     1      57.010  31.746  46.438  1.00  0.00     0.170 C 
BRANCH  23  24
HETATM   24  O   UNL     1      56.995  32.624  45.310  1.00  0.00    -0.380 OA
HETATM   25  H   UNL     1      56.560  33.455  45.593  1.00  0.00     0.211 HD
ENDBRANCH  23  24
ENDBRANCH  19  23
BRANCH  20  26
HETATM   26  O   UNL     1      58.280  32.702  48.876  1.00  0.00    -0.380 OA
HETATM   27  H   UNL     1      58.920  33.366  49.180  1.00  0.00     0.211 HD
ENDBRANCH  20  26
BRANCH  21  28
HETATM   28  O   UNL     1      57.033  34.760  50.428  1.00  0.00    -0.380 OA
HETATM   29  H   UNL     1      57.940  34.746  50.065  1.00  0.00     0.211 HD
ENDBRANCH  21  28
BRANCH  22  30
HETATM   30  O   UNL     1      54.737  33.348  51.367  1.00  0.00    -0.378 OA
HETATM   31  H   UNL     1      55.290  33.613  52.128  1.00  0.00     0.211 HD
ENDBRANCH  22  30
ENDBRANCH   1  17
TORSDOF 12
ENDMDL
MODEL 10
REMARK VINA RESULT:    -4.571     14.701     17.122
REMARK INTER + INTRA:          -8.198
REMARK INTER:                  -6.710
REMARK INTRA:                  -1.488
REMARK UNBOUND:                -1.489
REMARK  12 active torsions:
REMARK  status: ('A' for Active; 'I' for Inactive)
REMARK    1  A    between atoms: O_1  and  C_12 
REMARK    2  A    between atoms: O_1  and  C_14 
REMARK    3  A    between atoms: O_4  and  C_13 
REMARK    4  A    between atoms: O_5  and  C_16 
REMARK    5  A    between atoms: O_6  and  C_17 
REMARK    6  A    between atoms: O_7  and  C_18 
REMARK    7  A    between atoms: O_8  and  C_19 
REMARK    8  A    between atoms: O_9  and  C_21 
REMARK    9  A    between atoms: O_10  and  C_22 
REMARK   10  A    between atoms: O_11  and  C_23 
REMARK   11  A    between atoms: C_15  and  C_22 
REMARK   12  A    between atoms: C_20  and  C_23 
ROOT
HETATM    1  O   UNL     1      58.586  32.577  50.238  1.00  0.00    -0.326 OA
ENDROOT
BRANCH   1   2
HETATM    2  C   UNL     1      57.315  31.894  50.249  1.00  0.00     0.177 C 
HETATM    3  C   UNL     1      57.001  31.368  51.667  1.00  0.00     0.172 C 
HETATM    4  C   UNL     1      55.541  30.917  51.796  1.00  0.00     0.197 C 
HETATM    5  C   UNL     1      54.588  31.982  51.235  1.00  0.00     0.263 C 
HETATM    6  O   UNL     1      54.920  32.323  49.900  1.00  0.00    -0.327 OA
HETATM    7  C   UNL     1      56.234  32.899  49.816  1.00  0.00     0.177 C 
BRANCH   3   8
HETATM    8  O   UNL     1      57.857  30.252  51.972  1.00  0.00    -0.380 OA
HETATM    9  H   UNL     1      58.332  30.054  51.140  1.00  0.00     0.211 HD
ENDBRANCH   3   8
BRANCH   4  10
HETATM   10  O   UNL     1      55.217  30.675  53.176  1.00  0.00    -0.378 OA
HETATM   11  H   UNL     1      54.971  31.547  53.539  1.00  0.00     0.211 HD
ENDBRANCH   4  10
BRANCH   5  12
HETATM   12  O   UNL     1      53.271  31.444  51.238  1.00  0.00    -0.359 OA
HETATM   13  H   UNL     1      52.681  32.212  51.170  1.00  0.00     0.213 HD
ENDBRANCH   5  12
BRANCH   7  14
HETATM   14  C   UNL     1      56.440  33.340  48.362  1.00  0.00     0.170 C 
BRANCH  14  15
HETATM   15  O   UNL     1      57.083  34.614  48.335  1.00  0.00    -0.380 OA
HETATM   16  H   UNL     1      57.136  34.864  47.392  1.00  0.00     0.211 HD
ENDBRANCH  14  15
ENDBRANCH   7  14
ENDBRANCH   1   2
BRANCH   1  17
HETATM   17  C   UNL     1      58.731  33.551  51.280  1.00  0.00     0.266 C 
HETATM   18  O   UNL     1      58.542  34.855  50.742  1.00  0.00    -0.326 OA
HETATM   19  C   UNL     1      58.611  35.876  51.764  1.00  0.00     0.176 C 
HETATM   20  C   UNL     1      60.043  35.922  52.319  1.00  0.00     0.170 C 
HETATM   21  C   UNL     1      60.398  34.532  52.883  1.00  0.00     0.172 C 
HETATM   22  C   UNL     1      60.156  33.423  51.852  1.00  0.00     0.197 C 
BRANCH  19  23
HETATM   23  C   UNL     1      58.182  37.196  51.120  1.00  0.00     0.170 C 
BRANCH  23  24
HETATM   24  O   UNL     1      57.181  36.935  50.132  1.00  0.00    -0.380 OA
HETATM   25  H   UNL     1      56.342  37.321  50.459  1.00  0.00     0.211 HD
ENDBRANCH  23  24
ENDBRANCH  19  23
BRANCH  20  26
HETATM   26  O   UNL     1      60.951  36.316  51.281  1.00  0.00    -0.380 OA
HETATM   27  H   UNL     1      61.328  35.520  50.871  1.00  0.00     0.211 HD
ENDBRANCH  20  26
BRANCH  21  28
HETATM   28  O   UNL     1      61.755  34.486  53.331  1.00  0.00    -0.380 OA
HETATM   29  H   UNL     1      62.181  33.765  52.828  1.00  0.00     0.211 HD
ENDBRANCH  21  28
BRANCH  22  30
HETATM   30  O   UNL     1      60.349  32.150  52.488  1.00  0.00    -0.378 OA
HETATM   31  H   UNL     1      59.464  31.741  52.549  1.00  0.00     0.211 HD
ENDBRANCH  22  30
ENDBRANCH   1  17
TORSDOF 12
ENDMDL
