MODEL 1
REMARK VINA RESULT:    -5.743      0.000      0.000
REMARK INTER + INTRA:          -9.925
REMARK INTER:                  -8.677
REMARK INTRA:                  -1.248
REMARK UNBOUND:                -1.496
REMARK  12 active torsions:
REMARK  status: ('A' for Active; 'I' for Inactive)
REMARK    1  A    between atoms: O_1  and  C_12 
REMARK    2  A    between atoms: O_1  and  C_14 
REMARK    3  A    between atoms: O_4  and  C_13 
REMARK    4  A    between atoms: O_5  and  C_16 
REMARK    5  A    between atoms: O_6  and  C_17 
REMARK    6  A    between atoms: O_7  and  C_18 
REMARK    7  A    between atoms: O_8  and  C_19 
REMARK    8  A    between atoms: O_9  and  C_21 
REMARK    9  A    between atoms: O_10  and  C_22 
REMARK   10  A    between atoms: O_11  and  C_23 
REMARK   11  A    between atoms: C_15  and  C_22 
REMARK   12  A    between atoms: C_20  and  C_23 
ROOT
HETATM    1  O   UNL     1      43.172  38.442  45.573  1.00  0.00    -0.326 OA
ENDROOT
BRANCH   1   2
HETATM    2  C   UNL     1      43.544  38.251  46.953  1.00  0.00     0.177 C 
HETATM    3  C   UNL     1      43.620  39.610  47.682  1.00  0.00     0.172 C 
HETATM    4  C   UNL     1      43.703  39.437  49.203  1.00  0.00     0.197 C 
HETATM    5  C   UNL     1      42.634  38.453  49.701  1.00  0.00     0.263 C 
HETATM    6  O   UNL     1      42.716  37.212  49.022  1.00  0.00    -0.327 OA
HETATM    7  C   UNL     1      42.473  37.366  47.614  1.00  0.00     0.177 C 
BRANCH   3   8
HETATM    8  O   UNL     1      44.780  40.336  47.237  1.00  0.00    -0.380 OA
HETATM    9  H   UNL     1      45.126  40.787  48.034  1.00  0.00     0.211 HD
ENDBRANCH   3   8
BRANCH   4  10
HETATM   10  O   UNL     1      43.518  40.704  49.858  1.00  0.00    -0.378 OA
HETATM   11  H   UNL     1      43.248  41.321  49.152  1.00  0.00     0.211 HD
ENDBRANCH   4  10
BRANCH   5  12
HETATM   12  O   UNL     1      42.861  38.215  51.084  1.00  0.00    -0.359 OA
HETATM   13  H   UNL     1      43.820  38.313  51.207  1.00  0.00     0.213 HD
ENDBRANCH   5  12
BRANCH   7  14
HETATM   14  C   UNL     1      42.463  35.960  47.002  1.00  0.00     0.170 C 
BRANCH  14  15
HETATM   15  O   UNL     1      43.798  35.566  46.686  1.00  0.00    -0.380 OA
HETATM   16  H   UNL     1      43.904  34.669  47.058  1.00  0.00     0.211 HD
ENDBRANCH  14  15
ENDBRANCH   7  14
ENDBRANCH   1   2
BRANCH   1  17
HETATM   17  C   UNL     1      44.277  38.748  44.711  1.00  0.00     0.266 C 
HETATM   18  O   UNL     1      44.129  40.067  44.197  1.00  0.00    -0.326 OA
HETATM   19  C   UNL     1      45.251  40.454  43.372  1.00  0.00     0.176 C 
HETATM   20  C   UNL     1      45.262  39.578  42.110  1.00  0.00     0.170 C 
HETATM   21  C   UNL     1      45.358  38.099  42.537  1.00  0.00     0.172 C 
HETATM   22  C   UNL     1      44.270  37.731  43.553  1.00  0.00     0.197 C 
BRANCH  19  23
HETATM   23  C   UNL     1      45.094  41.943  43.058  1.00  0.00     0.170 C 
BRANCH  23  24
HETATM   24  O   UNL     1      43.705  42.249  42.908  1.00  0.00    -0.380 OA
HETATM   25  H   UNL     1      43.218  41.732  43.583  1.00  0.00     0.211 HD
ENDBRANCH  23  24
ENDBRANCH  19  23
BRANCH  20  26
HETATM   26  O   UNL     1      44.079  39.826  41.339  1.00  0.00    -0.380 OA
HETATM   27  H   UNL     1      43.643  40.626  41.676  1.00  0.00     0.211 HD
ENDBRANCH  20  26
BRANCH  21  28
HETATM   28  O   UNL     1      45.279  37.227  41.407  1.00  0.00    -0.380 OA
HETATM   29  H   UNL     1      45.995  37.504  40.803  1.00  0.00     0.211 HD
ENDBRANCH  21  28
BRANCH  22  30
HETATM   30  O   UNL     1      44.513  36.398  44.029  1.00  0.00    -0.378 OA
HETATM   31  H   UNL     1      43.656  36.070  44.365  1.00  0.00     0.211 HD
ENDBRANCH  22  30
ENDBRANCH   1  17
TORSDOF 12
ENDMDL
MODEL 2
REMARK VINA RESULT:    -5.693      1.972      3.369
REMARK INTER + INTRA:          -9.851
REMARK INTER:                  -8.356
REMARK INTRA:                  -1.496
REMARK UNBOUND:                -1.496
REMARK  12 active torsions:
REMARK  status: ('A' for Active; 'I' for Inactive)
REMARK    1  A    between atoms: O_1  and  C_12 
REMARK    2  A    between atoms: O_1  and  C_14 
REMARK    3  A    between atoms: O_4  and  C_13 
REMARK    4  A    between atoms: O_5  and  C_16 
REMARK    5  A    between atoms: O_6  and  C_17 
REMARK    6  A    between atoms: O_7  and  C_18 
REMARK    7  A    between atoms: O_8  and  C_19 
REMARK    8  A    between atoms: O_9  and  C_21 
REMARK    9  A    between atoms: O_10  and  C_22 
REMARK   10  A    between atoms: O_11  and  C_23 
REMARK   11  A    between atoms: C_15  and  C_22 
REMARK   12  A    between atoms: C_20  and  C_23 
ROOT
HETATM    1  O   UNL     1      43.714  40.274  44.899  1.00  0.00    -0.326 OA
ENDROOT
BRANCH   1   2
HETATM    2  C   UNL     1      43.267  39.274  45.837  1.00  0.00     0.177 C 
HETATM    3  C   UNL     1      44.413  38.888  46.798  1.00  0.00     0.172 C 
HETATM    4  C   UNL     1      43.905  38.072  47.992  1.00  0.00     0.197 C 
HETATM    5  C   UNL     1      42.676  38.740  48.627  1.00  0.00     0.263 C 
HETATM    6  O   UNL     1      41.657  38.966  47.669  1.00  0.00    -0.327 OA
HETATM    7  C   UNL     1      42.095  39.866  46.639  1.00  0.00     0.177 C 
BRANCH   3   8
HETATM    8  O   UNL     1      45.397  38.109  46.093  1.00  0.00    -0.380 OA
HETATM    9  H   UNL     1      45.804  37.531  46.770  1.00  0.00     0.211 HD
ENDBRANCH   3   8
BRANCH   4  10
HETATM   10  O   UNL     1      44.939  37.948  48.984  1.00  0.00    -0.378 OA
HETATM   11  H   UNL     1      44.705  38.591  49.681  1.00  0.00     0.211 HD
ENDBRANCH   4  10
BRANCH   5  12
HETATM   12  O   UNL     1      42.161  37.863  49.621  1.00  0.00    -0.359 OA
HETATM   13  H   UNL     1      41.441  38.355  50.048  1.00  0.00     0.213 HD
ENDBRANCH   5  12
BRANCH   7  14
HETATM   14  C   UNL     1      40.887  40.136  45.733  1.00  0.00     0.170 C 
BRANCH  14  15
HETATM   15  O   UNL     1      40.924  41.487  45.275  1.00  0.00    -0.380 OA
HETATM   16  H   UNL     1      40.016  41.830  45.387  1.00  0.00     0.211 HD
ENDBRANCH  14  15
ENDBRANCH   7  14
ENDBRANCH   1   2
BRANCH   1  17
HETATM   17  C   UNL     1      43.718  39.830  43.535  1.00  0.00     0.266 C 
HETATM   18  O   UNL     1      44.954  39.185  43.249  1.00  0.00    -0.326 OA
HETATM   19  C   UNL     1      44.988  38.657  41.903  1.00  0.00     0.176 C 
HETATM   20  C   UNL     1      44.958  39.830  40.912  1.00  0.00     0.170 C 
HETATM   21  C   UNL     1      43.681  40.656  41.162  1.00  0.00     0.172 C 
HETATM   22  C   UNL     1      43.552  41.069  42.634  1.00  0.00     0.197 C 
BRANCH  19  23
HETATM   23  C   UNL     1      46.255  37.808  41.779  1.00  0.00     0.170 C 
BRANCH  23  24
HETATM   24  O   UNL     1      47.337  38.477  42.431  1.00  0.00    -0.380 OA
HETATM   25  H   UNL     1      46.973  38.907  43.232  1.00  0.00     0.211 HD
ENDBRANCH  23  24
ENDBRANCH  19  23
BRANCH  20  26
HETATM   26  O   UNL     1      46.139  40.628  41.071  1.00  0.00    -0.380 OA
HETATM   27  H   UNL     1      46.697  40.234  41.762  1.00  0.00     0.211 HD
ENDBRANCH  20  26
BRANCH  21  28
HETATM   28  O   UNL     1      43.642  41.817  40.330  1.00  0.00    -0.380 OA
HETATM   29  H   UNL     1      42.696  42.003  40.171  1.00  0.00     0.211 HD
ENDBRANCH  21  28
BRANCH  22  30
HETATM   30  O   UNL     1      42.272  41.689  42.831  1.00  0.00    -0.378 OA
HETATM   31  H   UNL     1      41.642  40.962  43.000  1.00  0.00     0.211 HD
ENDBRANCH  22  30
ENDBRANCH   1  17
TORSDOF 12
ENDMDL
MODEL 3
REMARK VINA RESULT:    -5.647      1.875      6.385
REMARK INTER + INTRA:          -9.783
REMARK INTER:                  -8.315
REMARK INTRA:                  -1.468
REMARK UNBOUND:                -1.496
REMARK  12 active torsions:
REMARK  status: ('A' for Active; 'I' for Inactive)
REMARK    1  A    between atoms: O_1  and  C_12 
REMARK    2  A    between atoms: O_1  and  C_14 
REMARK    3  A    between atoms: O_4  and  C_13 
REMARK    4  A    between atoms: O_5  and  C_16 
REMARK    5  A    between atoms: O_6  and  C_17 
REMARK    6  A    between atoms: O_7  and  C_18 
REMARK    7  A    between atoms: O_8  and  C_19 
REMARK    8  A    between atoms: O_9  and  C_21 
REMARK    9  A    between atoms: O_10  and  C_22 
REMARK   10  A    between atoms: O_11  and  C_23 
REMARK   11  A    between atoms: C_15  and  C_22 
REMARK   12  A    between atoms: C_20  and  C_23 
ROOT
HETATM    1  O   UNL     1      44.223  40.365  44.734  1.00  0.00    -0.326 OA
ENDROOT
BRANCH   1   2
HETATM    2  C   UNL     1      44.341  40.230  43.303  1.00  0.00     0.177 C 
HETATM    3  C   UNL     1      45.228  39.017  42.949  1.00  0.00     0.172 C 
HETATM    4  C   UNL     1      45.128  38.652  41.463  1.00  0.00     0.197 C 
HETATM    5  C   UNL     1      43.660  38.579  41.016  1.00  0.00     0.263 C 
HETATM    6  O   UNL     1      42.968  39.779  41.314  1.00  0.00    -0.327 OA
HETATM    7  C   UNL     1      42.928  40.025  42.729  1.00  0.00     0.177 C 
BRANCH   3   8
HETATM    8  O   UNL     1      46.602  39.313  43.259  1.00  0.00    -0.380 OA
HETATM    9  H   UNL     1      47.025  39.514  42.399  1.00  0.00     0.211 HD
ENDBRANCH   3   8
BRANCH   4  10
HETATM   10  O   UNL     1      45.758  37.382  41.220  1.00  0.00    -0.378 OA
HETATM   11  H   UNL     1      45.096  36.713  41.482  1.00  0.00     0.211 HD
ENDBRANCH   4  10
BRANCH   5  12
HETATM   12  O   UNL     1      43.636  38.395  39.606  1.00  0.00    -0.359 OA
HETATM   13  H   UNL     1      44.501  38.013  39.383  1.00  0.00     0.213 HD
ENDBRANCH   5  12
BRANCH   7  14
HETATM   14  C   UNL     1      42.058  41.269  42.945  1.00  0.00     0.170 C 
BRANCH  14  15
HETATM   15  O   UNL     1      41.440  41.204  44.230  1.00  0.00    -0.380 OA
HETATM   16  H   UNL     1      40.492  41.386  44.078  1.00  0.00     0.211 HD
ENDBRANCH  14  15
ENDBRANCH   7  14
ENDBRANCH   1   2
BRANCH   1  17
HETATM   17  C   UNL     1      43.949  39.132  45.414  1.00  0.00     0.266 C 
HETATM   18  O   UNL     1      42.553  39.029  45.668  1.00  0.00    -0.326 OA
HETATM   19  C   UNL     1      42.210  37.771  46.293  1.00  0.00     0.176 C 
HETATM   20  C   UNL     1      42.832  37.732  47.697  1.00  0.00     0.170 C 
HETATM   21  C   UNL     1      44.359  37.899  47.564  1.00  0.00     0.172 C 
HETATM   22  C   UNL     1      44.724  39.143  46.745  1.00  0.00     0.197 C 
BRANCH  19  23
HETATM   23  C   UNL     1      40.683  37.677  46.319  1.00  0.00     0.170 C 
BRANCH  23  24
HETATM   24  O   UNL     1      40.126  38.983  46.148  1.00  0.00    -0.380 OA
HETATM   25  H   UNL     1      39.879  39.073  45.204  1.00  0.00     0.211 HD
ENDBRANCH  23  24
ENDBRANCH  19  23
BRANCH  20  26
HETATM   26  O   UNL     1      42.260  38.766  48.509  1.00  0.00    -0.380 OA
HETATM   27  H   UNL     1      41.834  39.422  47.933  1.00  0.00     0.211 HD
ENDBRANCH  20  26
BRANCH  21  28
HETATM   28  O   UNL     1      44.988  37.963  48.846  1.00  0.00    -0.380 OA
HETATM   29  H   UNL     1      44.446  37.407  49.439  1.00  0.00     0.211 HD
ENDBRANCH  21  28
BRANCH  22  30
HETATM   30  O   UNL     1      46.143  39.151  46.522  1.00  0.00    -0.378 OA
HETATM   31  H   UNL     1      46.427  40.081  46.618  1.00  0.00     0.211 HD
ENDBRANCH  22  30
ENDBRANCH   1  17
TORSDOF 12
ENDMDL
MODEL 4
REMARK VINA RESULT:    -5.581      1.378      2.350
REMARK INTER + INTRA:          -9.687
REMARK INTER:                  -8.162
REMARK INTRA:                  -1.525
REMARK UNBOUND:                -1.496
REMARK  12 active torsions:
REMARK  status: ('A' for Active; 'I' for Inactive)
REMARK    1  A    between atoms: O_1  and  C_12 
REMARK    2  A    between atoms: O_1  and  C_14 
REMARK    3  A    between atoms: O_4  and  C_13 
REMARK    4  A    between atoms: O_5  and  C_16 
REMARK    5  A    between atoms: O_6  and  C_17 
REMARK    6  A    between atoms: O_7  and  C_18 
REMARK    7  A    between atoms: O_8  and  C_19 
REMARK    8  A    between atoms: O_9  and  C_21 
REMARK    9  A    between atoms: O_10  and  C_22 
REMARK   10  A    between atoms: O_11  and  C_23 
REMARK   11  A    between atoms: C_15  and  C_22 
REMARK   12  A    between atoms: C_20  and  C_23 
ROOT
HETATM    1  O   UNL     1      42.834  38.368  44.722  1.00  0.00    -0.326 OA
ENDROOT
BRANCH   1   2
HETATM    2  C   UNL     1      42.621  38.332  46.148  1.00  0.00     0.177 C 
HETATM    3  C   UNL     1      43.839  37.702  46.857  1.00  0.00     0.172 C 
HETATM    4  C   UNL     1      43.794  37.924  48.374  1.00  0.00     0.197 C 
HETATM    5  C   UNL     1      43.498  39.395  48.701  1.00  0.00     0.263 C 
HETATM    6  O   UNL     1      42.311  39.838  48.066  1.00  0.00    -0.327 OA
HETATM    7  C   UNL     1      42.428  39.778  46.635  1.00  0.00     0.177 C 
BRANCH   3   8
HETATM    8  O   UNL     1      43.873  36.286  46.601  1.00  0.00    -0.380 OA
HETATM    9  H   UNL     1      43.099  36.107  46.029  1.00  0.00     0.211 HD
ENDBRANCH   3   8
BRANCH   4  10
HETATM   10  O   UNL     1      45.050  37.554  48.968  1.00  0.00    -0.378 OA
HETATM   11  H   UNL     1      45.191  36.622  48.711  1.00  0.00     0.211 HD
ENDBRANCH   4  10
BRANCH   5  12
HETATM   12  O   UNL     1      43.314  39.507  50.107  1.00  0.00    -0.359 OA
HETATM   13  H   UNL     1      42.733  38.767  50.349  1.00  0.00     0.213 HD
ENDBRANCH   5  12
BRANCH   7  14
HETATM   14  C   UNL     1      41.148  40.391  46.053  1.00  0.00     0.170 C 
BRANCH  14  15
HETATM   15  O   UNL     1      41.454  41.077  44.840  1.00  0.00    -0.380 OA
HETATM   16  H   UNL     1      42.149  40.547  44.404  1.00  0.00     0.211 HD
ENDBRANCH  14  15
ENDBRANCH   7  14
ENDBRANCH   1   2
BRANCH   1  17
HETATM   17  C   UNL     1      44.176  38.700  44.343  1.00  0.00     0.266 C 
HETATM   18  O   UNL     1      44.224  40.051  43.897  1.00  0.00    -0.326 OA
HETATM   19  C   UNL     1      45.570  40.461  43.564  1.00  0.00     0.176 C 
HETATM   20  C   UNL     1      46.041  39.663  42.339  1.00  0.00     0.170 C 
HETATM   21  C   UNL     1      45.976  38.160  42.675  1.00  0.00     0.172 C 
HETATM   22  C   UNL     1      44.592  37.756  43.199  1.00  0.00     0.197 C 
BRANCH  19  23
HETATM   23  C   UNL     1      45.536  41.970  43.311  1.00  0.00     0.170 C 
BRANCH  23  24
HETATM   24  O   UNL     1      44.222  42.350  42.894  1.00  0.00    -0.380 OA
HETATM   25  H   UNL     1      43.609  42.123  43.623  1.00  0.00     0.211 HD
ENDBRANCH  23  24
ENDBRANCH  19  23
BRANCH  20  26
HETATM   26  O   UNL     1      45.221  39.985  41.207  1.00  0.00    -0.380 OA
HETATM   27  H   UNL     1      44.286  39.905  41.461  1.00  0.00     0.211 HD
ENDBRANCH  20  26
BRANCH  21  28
HETATM   28  O   UNL     1      46.315  37.360  41.540  1.00  0.00    -0.380 OA
HETATM   29  H   UNL     1      47.256  37.547  41.351  1.00  0.00     0.211 HD
ENDBRANCH  21  28
BRANCH  22  30
HETATM   30  O   UNL     1      44.646  36.391  43.643  1.00  0.00    -0.378 OA
HETATM   31  H   UNL     1      44.051  35.890  43.053  1.00  0.00     0.211 HD
ENDBRANCH  22  30
ENDBRANCH   1  17
TORSDOF 12
ENDMDL
MODEL 5
REMARK VINA RESULT:    -5.265      1.901      6.799
REMARK INTER + INTRA:          -9.223
REMARK INTER:                  -8.019
REMARK INTRA:                  -1.204
REMARK UNBOUND:                -1.496
REMARK  12 active torsions:
REMARK  status: ('A' for Active; 'I' for Inactive)
REMARK    1  A    between atoms: O_1  and  C_12 
REMARK    2  A    between atoms: O_1  and  C_14 
REMARK    3  A    between atoms: O_4  and  C_13 
REMARK    4  A    between atoms: O_5  and  C_16 
REMARK    5  A    between atoms: O_6  and  C_17 
REMARK    6  A    between atoms: O_7  and  C_18 
REMARK    7  A    between atoms: O_8  and  C_19 
REMARK    8  A    between atoms: O_9  and  C_21 
REMARK    9  A    between atoms: O_10  and  C_22 
REMARK   10  A    between atoms: O_11  and  C_23 
REMARK   11  A    between atoms: C_15  and  C_22 
REMARK   12  A    between atoms: C_20  and  C_23 
ROOT
HETATM    1  O   UNL     1      44.129  40.181  44.622  1.00  0.00    -0.326 OA
ENDROOT
BRANCH   1   2
HETATM    2  C   UNL     1      44.759  39.869  43.363  1.00  0.00     0.177 C 
HETATM    3  C   UNL     1      43.722  39.305  42.368  1.00  0.00     0.172 C 
HETATM    4  C   UNL     1      44.274  39.254  40.938  1.00  0.00     0.197 C 
HETATM    5  C   UNL     1      44.931  40.588  40.558  1.00  0.00     0.263 C 
HETATM    6  O   UNL     1      45.926  40.962  41.495  1.00  0.00    -0.327 OA
HETATM    7  C   UNL     1      45.365  41.167  42.802  1.00  0.00     0.177 C 
BRANCH   3   8
HETATM    8  O   UNL     1      43.343  37.974  42.763  1.00  0.00    -0.380 OA
HETATM    9  H   UNL     1      42.409  38.045  43.050  1.00  0.00     0.211 HD
ENDBRANCH   3   8
BRANCH   4  10
HETATM   10  O   UNL     1      43.215  38.968  40.007  1.00  0.00    -0.378 OA
HETATM   11  H   UNL     1      42.986  39.828  39.606  1.00  0.00     0.211 HD
ENDBRANCH   4  10
BRANCH   5  12
HETATM   12  O   UNL     1      45.557  40.428  39.290  1.00  0.00    -0.359 OA
HETATM   13  H   UNL     1      45.873  41.314  39.047  1.00  0.00     0.213 HD
ENDBRANCH   5  12
BRANCH   7  14
HETATM   14  C   UNL     1      46.496  41.683  43.701  1.00  0.00     0.170 C 
BRANCH  14  15
HETATM   15  O   UNL     1      47.175  40.578  44.297  1.00  0.00    -0.380 OA
HETATM   16  H   UNL     1      46.757  39.778  43.924  1.00  0.00     0.211 HD
ENDBRANCH  14  15
ENDBRANCH   7  14
ENDBRANCH   1   2
BRANCH   1  17
HETATM   17  C   UNL     1      43.963  39.048  45.485  1.00  0.00     0.266 C 
HETATM   18  O   UNL     1      42.576  38.815  45.703  1.00  0.00    -0.326 OA
HETATM   19  C   UNL     1      42.347  37.641  46.515  1.00  0.00     0.176 C 
HETATM   20  C   UNL     1      42.892  37.902  47.927  1.00  0.00     0.170 C 
HETATM   21  C   UNL     1      44.394  38.232  47.822  1.00  0.00     0.172 C 
HETATM   22  C   UNL     1      44.657  39.366  46.823  1.00  0.00     0.197 C 
BRANCH  19  23
HETATM   23  C   UNL     1      40.842  37.365  46.502  1.00  0.00     0.170 C 
BRANCH  23  24
HETATM   24  O   UNL     1      40.138  38.594  46.305  1.00  0.00    -0.380 OA
HETATM   25  H   UNL     1      40.527  39.029  45.518  1.00  0.00     0.211 HD
ENDBRANCH  23  24
ENDBRANCH  19  23
BRANCH  20  26
HETATM   26  O   UNL     1      42.160  38.974  48.537  1.00  0.00    -0.380 OA
HETATM   27  H   UNL     1      41.229  38.919  48.262  1.00  0.00     0.211 HD
ENDBRANCH  20  26
BRANCH  21  28
HETATM   28  O   UNL     1      44.939  38.577  49.098  1.00  0.00    -0.380 OA
HETATM   29  H   UNL     1      44.476  39.390  49.378  1.00  0.00     0.211 HD
ENDBRANCH  21  28
BRANCH  22  30
HETATM   30  O   UNL     1      46.075  39.513  46.652  1.00  0.00    -0.378 OA
HETATM   31  H   UNL     1      46.248  40.474  46.635  1.00  0.00     0.211 HD
ENDBRANCH  22  30
ENDBRANCH   1  17
TORSDOF 12
ENDMDL
MODEL 6
REMARK VINA RESULT:    -5.147      1.649      6.240
REMARK INTER + INTRA:          -9.050
REMARK INTER:                  -7.645
REMARK INTRA:                  -1.406
REMARK UNBOUND:                -1.496
REMARK  12 active torsions:
REMARK  status: ('A' for Active; 'I' for Inactive)
REMARK    1  A    between atoms: O_1  and  C_12 
REMARK    2  A    between atoms: O_1  and  C_14 
REMARK    3  A    between atoms: O_4  and  C_13 
REMARK    4  A    between atoms: O_5  and  C_16 
REMARK    5  A    between atoms: O_6  and  C_17 
REMARK    6  A    between atoms: O_7  and  C_18 
REMARK    7  A    between atoms: O_8  and  C_19 
REMARK    8  A    between atoms: O_9  and  C_21 
REMARK    9  A    between atoms: O_10  and  C_22 
REMARK   10  A    between atoms: O_11  and  C_23 
REMARK   11  A    between atoms: C_15  and  C_22 
REMARK   12  A    between atoms: C_20  and  C_23 
ROOT
HETATM    1  O   UNL     1      45.200  37.927  44.699  1.00  0.00    -0.326 OA
ENDROOT
BRANCH   1   2
HETATM    2  C   UNL     1      44.336  38.106  43.558  1.00  0.00     0.177 C 
HETATM    3  C   UNL     1      44.202  39.605  43.214  1.00  0.00     0.172 C 
HETATM    4  C   UNL     1      43.556  39.820  41.840  1.00  0.00     0.197 C 
HETATM    5  C   UNL     1      44.223  38.932  40.779  1.00  0.00     0.263 C 
HETATM    6  O   UNL     1      44.210  37.568  41.162  1.00  0.00    -0.327 OA
HETATM    7  C   UNL     1      44.960  37.354  42.369  1.00  0.00     0.177 C 
BRANCH   3   8
HETATM    8  O   UNL     1      43.396  40.262  44.209  1.00  0.00    -0.380 OA
HETATM    9  H   UNL     1      43.371  41.203  43.943  1.00  0.00     0.211 HD
ENDBRANCH   3   8
BRANCH   4  10
HETATM   10  O   UNL     1      43.677  41.197  41.445  1.00  0.00    -0.378 OA
HETATM   11  H   UNL     1      42.901  41.645  41.833  1.00  0.00     0.211 HD
ENDBRANCH   4  10
BRANCH   5  12
HETATM   12  O   UNL     1      43.484  39.057  39.570  1.00  0.00    -0.359 OA
HETATM   13  H   UNL     1      43.152  39.970  39.566  1.00  0.00     0.213 HD
ENDBRANCH   5  12
BRANCH   7  14
HETATM   14  C   UNL     1      44.984  35.842  42.622  1.00  0.00     0.170 C 
BRANCH  14  15
HETATM   15  O   UNL     1      43.896  35.482  43.473  1.00  0.00    -0.380 OA
HETATM   16  H   UNL     1      44.297  35.015  44.232  1.00  0.00     0.211 HD
ENDBRANCH  14  15
ENDBRANCH   7  14
ENDBRANCH   1   2
BRANCH   1  17
HETATM   17  C   UNL     1      44.504  37.595  45.908  1.00  0.00     0.266 C 
HETATM   18  O   UNL     1      43.102  37.588  45.663  1.00  0.00    -0.326 OA
HETATM   19  C   UNL     1      42.352  37.193  46.835  1.00  0.00     0.176 C 
HETATM   20  C   UNL     1      42.521  38.272  47.916  1.00  0.00     0.170 C 
HETATM   21  C   UNL     1      44.023  38.423  48.231  1.00  0.00     0.172 C 
HETATM   22  C   UNL     1      44.847  38.667  46.960  1.00  0.00     0.197 C 
BRANCH  19  23
HETATM   23  C   UNL     1      40.896  37.010  46.403  1.00  0.00     0.170 C 
BRANCH  23  24
HETATM   24  O   UNL     1      40.034  37.372  47.485  1.00  0.00    -0.380 OA
HETATM   25  H   UNL     1      39.572  38.197  47.226  1.00  0.00     0.211 HD
ENDBRANCH  23  24
ENDBRANCH  19  23
BRANCH  20  26
HETATM   26  O   UNL     1      41.953  39.507  47.460  1.00  0.00    -0.380 OA
HETATM   27  H   UNL     1      42.347  39.739  46.602  1.00  0.00     0.211 HD
ENDBRANCH  20  26
BRANCH  21  28
HETATM   28  O   UNL     1      44.253  39.480  49.165  1.00  0.00    -0.380 OA
HETATM   29  H   UNL     1      44.910  39.138  49.802  1.00  0.00     0.211 HD
ENDBRANCH  21  28
BRANCH  22  30
HETATM   30  O   UNL     1      46.242  38.636  47.300  1.00  0.00    -0.378 OA
HETATM   31  H   UNL     1      46.517  37.702  47.230  1.00  0.00     0.211 HD
ENDBRANCH  22  30
ENDBRANCH   1  17
TORSDOF 12
ENDMDL
MODEL 7
REMARK VINA RESULT:    -5.036      1.325      6.102
REMARK INTER + INTRA:          -8.887
REMARK INTER:                  -7.426
REMARK INTRA:                  -1.462
REMARK UNBOUND:                -1.496
REMARK  12 active torsions:
REMARK  status: ('A' for Active; 'I' for Inactive)
REMARK    1  A    between atoms: O_1  and  C_12 
REMARK    2  A    between atoms: O_1  and  C_14 
REMARK    3  A    between atoms: O_4  and  C_13 
REMARK    4  A    between atoms: O_5  and  C_16 
REMARK    5  A    between atoms: O_6  and  C_17 
REMARK    6  A    between atoms: O_7  and  C_18 
REMARK    7  A    between atoms: O_8  and  C_19 
REMARK    8  A    between atoms: O_9  and  C_21 
REMARK    9  A    between atoms: O_10  and  C_22 
REMARK   10  A    between atoms: O_11  and  C_23 
REMARK   11  A    between atoms: C_15  and  C_22 
REMARK   12  A    between atoms: C_20  and  C_23 
ROOT
HETATM    1  O   UNL     1      44.459  38.145  44.790  1.00  0.00    -0.326 OA
ENDROOT
BRANCH   1   2
HETATM    2  C   UNL     1      44.118  38.781  43.541  1.00  0.00     0.177 C 
HETATM    3  C   UNL     1      44.476  40.282  43.586  1.00  0.00     0.172 C 
HETATM    4  C   UNL     1      44.424  40.923  42.194  1.00  0.00     0.197 C 
HETATM    5  C   UNL     1      45.186  40.069  41.170  1.00  0.00     0.263 C 
HETATM    6  O   UNL     1      44.714  38.733  41.156  1.00  0.00    -0.327 OA
HETATM    7  C   UNL     1      44.920  38.089  42.424  1.00  0.00     0.177 C 
BRANCH   3   8
HETATM    8  O   UNL     1      43.555  40.976  44.447  1.00  0.00    -0.380 OA
HETATM    9  H   UNL     1      43.504  41.887  44.093  1.00  0.00     0.211 HD
ENDBRANCH   3   8
BRANCH   4  10
HETATM   10  O   UNL     1      45.000  42.240  42.232  1.00  0.00    -0.378 OA
HETATM   11  H   UNL     1      44.244  42.849  42.332  1.00  0.00     0.211 HD
ENDBRANCH   4  10
BRANCH   5  12
HETATM   12  O   UNL     1      44.970  40.627  39.880  1.00  0.00    -0.359 OA
HETATM   13  H   UNL     1      44.071  40.357  39.632  1.00  0.00     0.213 HD
ENDBRANCH   5  12
BRANCH   7  14
HETATM   14  C   UNL     1      44.491  36.626  42.261  1.00  0.00     0.170 C 
BRANCH  14  15
HETATM   15  O   UNL     1      45.150  35.822  43.239  1.00  0.00    -0.380 OA
HETATM   16  H   UNL     1      45.371  36.427  43.974  1.00  0.00     0.211 HD
ENDBRANCH  14  15
ENDBRANCH   7  14
ENDBRANCH   1   2
BRANCH   1  17
HETATM   17  C   UNL     1      43.349  37.992  45.685  1.00  0.00     0.266 C 
HETATM   18  O   UNL     1      43.359  39.047  46.640  1.00  0.00    -0.326 OA
HETATM   19  C   UNL     1      42.221  38.980  47.530  1.00  0.00     0.176 C 
HETATM   20  C   UNL     1      42.342  37.715  48.393  1.00  0.00     0.170 C 
HETATM   21  C   UNL     1      42.404  36.488  47.462  1.00  0.00     0.172 C 
HETATM   22  C   UNL     1      43.501  36.636  46.400  1.00  0.00     0.197 C 
BRANCH  19  23
HETATM   23  C   UNL     1      42.217  40.266  48.361  1.00  0.00     0.170 C 
BRANCH  23  24
HETATM   24  O   UNL     1      43.556  40.581  48.750  1.00  0.00    -0.380 OA
HETATM   25  H   UNL     1      44.113  40.531  47.945  1.00  0.00     0.211 HD
ENDBRANCH  23  24
ENDBRANCH  19  23
BRANCH  20  26
HETATM   26  O   UNL     1      43.509  37.805  49.222  1.00  0.00    -0.380 OA
HETATM   27  H   UNL     1      44.250  37.362  48.776  1.00  0.00     0.211 HD
ENDBRANCH  20  26
BRANCH  21  28
HETATM   28  O   UNL     1      42.611  35.284  48.204  1.00  0.00    -0.380 OA
HETATM   29  H   UNL     1      42.150  34.579  47.708  1.00  0.00     0.211 HD
ENDBRANCH  21  28
BRANCH  22  30
HETATM   30  O   UNL     1      43.399  35.544  45.474  1.00  0.00    -0.378 OA
HETATM   31  H   UNL     1      44.210  35.573  44.930  1.00  0.00     0.211 HD
ENDBRANCH  22  30
ENDBRANCH   1  17
TORSDOF 12
ENDMDL
MODEL 8
REMARK VINA RESULT:    -4.901      2.254      3.730
REMARK INTER + INTRA:          -8.688
REMARK INTER:                  -7.143
REMARK INTRA:                  -1.545
REMARK UNBOUND:                -1.496
REMARK  12 active torsions:
REMARK  status: ('A' for Active; 'I' for Inactive)
REMARK    1  A    between atoms: O_1  and  C_12 
REMARK    2  A    between atoms: O_1  and  C_14 
REMARK    3  A    between atoms: O_4  and  C_13 
REMARK    4  A    between atoms: O_5  and  C_16 
REMARK    5  A    between atoms: O_6  and  C_17 
REMARK    6  A    between atoms: O_7  and  C_18 
REMARK    7  A    between atoms: O_8  and  C_19 
REMARK    8  A    between atoms: O_9  and  C_21 
REMARK    9  A    between atoms: O_10  and  C_22 
REMARK   10  A    between atoms: O_11  and  C_23 
REMARK   11  A    between atoms: C_15  and  C_22 
REMARK   12  A    between atoms: C_20  and  C_23 
ROOT
HETATM    1  O   UNL     1      42.891  39.711  46.301  1.00  0.00    -0.326 OA
ENDROOT
BRANCH   1   2
HETATM    2  C   UNL     1      42.791  38.433  46.962  1.00  0.00     0.177 C 
HETATM    3  C   UNL     1      41.757  37.537  46.247  1.00  0.00     0.172 C 
HETATM    4  C   UNL     1      41.844  36.080  46.717  1.00  0.00     0.197 C 
HETATM    5  C   UNL     1      43.298  35.588  46.707  1.00  0.00     0.263 C 
HETATM    6  O   UNL     1      44.138  36.440  47.467  1.00  0.00    -0.327 OA
HETATM    7  C   UNL     1      44.177  37.767  46.916  1.00  0.00     0.177 C 
BRANCH   3   8
HETATM    8  O   UNL     1      40.428  38.026  46.505  1.00  0.00    -0.380 OA
HETATM    9  H   UNL     1      40.109  37.515  47.276  1.00  0.00     0.211 HD
ENDBRANCH   3   8
BRANCH   4  10
HETATM   10  O   UNL     1      41.054  35.235  45.862  1.00  0.00    -0.378 OA
HETATM   11  H   UNL     1      41.363  35.426  44.956  1.00  0.00     0.211 HD
ENDBRANCH   4  10
BRANCH   5  12
HETATM   12  O   UNL     1      43.332  34.295  47.298  1.00  0.00    -0.359 OA
HETATM   13  H   UNL     1      43.808  34.409  48.137  1.00  0.00     0.213 HD
ENDBRANCH   5  12
BRANCH   7  14
HETATM   14  C   UNL     1      45.201  38.564  47.733  1.00  0.00     0.170 C 
BRANCH  14  15
HETATM   15  O   UNL     1      46.026  39.327  46.853  1.00  0.00    -0.380 OA
HETATM   16  H   UNL     1      46.825  38.785  46.703  1.00  0.00     0.211 HD
ENDBRANCH  14  15
ENDBRANCH   7  14
ENDBRANCH   1   2
BRANCH   1  17
HETATM   17  C   UNL     1      43.157  39.618  44.895  1.00  0.00     0.266 C 
HETATM   18  O   UNL     1      44.494  40.030  44.635  1.00  0.00    -0.326 OA
HETATM   19  C   UNL     1      44.839  39.893  43.237  1.00  0.00     0.176 C 
HETATM   20  C   UNL     1      43.995  40.882  42.421  1.00  0.00     0.170 C 
HETATM   21  C   UNL     1      42.504  40.579  42.667  1.00  0.00     0.172 C 
HETATM   22  C   UNL     1      42.171  40.549  44.164  1.00  0.00     0.197 C 
BRANCH  19  23
HETATM   23  C   UNL     1      46.342  40.151  43.112  1.00  0.00     0.170 C 
BRANCH  23  24
HETATM   24  O   UNL     1      46.828  40.712  44.334  1.00  0.00    -0.380 OA
HETATM   25  H   UNL     1      46.115  40.623  44.999  1.00  0.00     0.211 HD
ENDBRANCH  23  24
ENDBRANCH  19  23
BRANCH  20  26
HETATM   26  O   UNL     1      44.326  42.226  42.797  1.00  0.00    -0.380 OA
HETATM   27  H   UNL     1      43.746  42.841  42.318  1.00  0.00     0.211 HD
ENDBRANCH  20  26
BRANCH  21  28
HETATM   28  O   UNL     1      41.665  41.528  42.005  1.00  0.00    -0.380 OA
HETATM   29  H   UNL     1      42.255  42.053  41.429  1.00  0.00     0.211 HD
ENDBRANCH  21  28
BRANCH  22  30
HETATM   30  O   UNL     1      40.815  40.104  44.328  1.00  0.00    -0.378 OA
HETATM   31  H   UNL     1      40.573  39.659  43.493  1.00  0.00     0.211 HD
ENDBRANCH  22  30
ENDBRANCH   1  17
TORSDOF 12
ENDMDL
MODEL 9
REMARK VINA RESULT:    -4.824      4.266      6.522
REMARK INTER + INTRA:          -8.576
REMARK INTER:                  -7.192
REMARK INTRA:                  -1.384
REMARK UNBOUND:                -1.496
REMARK  12 active torsions:
REMARK  status: ('A' for Active; 'I' for Inactive)
REMARK    1  A    between atoms: O_1  and  C_12 
REMARK    2  A    between atoms: O_1  and  C_14 
REMARK    3  A    between atoms: O_4  and  C_13 
REMARK    4  A    between atoms: O_5  and  C_16 
REMARK    5  A    between atoms: O_6  and  C_17 
REMARK    6  A    between atoms: O_7  and  C_18 
REMARK    7  A    between atoms: O_8  and  C_19 
REMARK    8  A    between atoms: O_9  and  C_21 
REMARK    9  A    between atoms: O_10  and  C_22 
REMARK   10  A    between atoms: O_11  and  C_23 
REMARK   11  A    between atoms: C_15  and  C_22 
REMARK   12  A    between atoms: C_20  and  C_23 
ROOT
HETATM    1  O   UNL     1      46.720  37.987  40.782  1.00  0.00    -0.326 OA
ENDROOT
BRANCH   1   2
HETATM    2  C   UNL     1      46.112  38.691  41.885  1.00  0.00     0.177 C 
HETATM    3  C   UNL     1      46.103  40.211  41.613  1.00  0.00     0.172 C 
HETATM    4  C   UNL     1      45.199  40.960  42.599  1.00  0.00     0.197 C 
HETATM    5  C   UNL     1      43.828  40.277  42.712  1.00  0.00     0.263 C 
HETATM    6  O   UNL     1      43.958  38.907  43.049  1.00  0.00    -0.327 OA
HETATM    7  C   UNL     1      44.668  38.181  42.033  1.00  0.00     0.177 C 
BRANCH   3   8
HETATM    8  O   UNL     1      47.439  40.733  41.725  1.00  0.00    -0.380 OA
HETATM    9  H   UNL     1      47.862  40.213  42.438  1.00  0.00     0.211 HD
ENDBRANCH   3   8
BRANCH   4  10
HETATM   10  O   UNL     1      45.014  42.320  42.168  1.00  0.00    -0.378 OA
HETATM   11  H   UNL     1      45.893  42.738  42.252  1.00  0.00     0.211 HD
ENDBRANCH   4  10
BRANCH   5  12
HETATM   12  O   UNL     1      43.098  40.920  43.749  1.00  0.00    -0.359 OA
HETATM   13  H   UNL     1      43.440  40.543  44.575  1.00  0.00     0.213 HD
ENDBRANCH   5  12
BRANCH   7  14
HETATM   14  C   UNL     1      44.643  36.702  42.437  1.00  0.00     0.170 C 
BRANCH  14  15
HETATM   15  O   UNL     1      44.748  35.885  41.271  1.00  0.00    -0.380 OA
HETATM   16  H   UNL     1      45.509  35.294  41.429  1.00  0.00     0.211 HD
ENDBRANCH  14  15
ENDBRANCH   7  14
ENDBRANCH   1   2
BRANCH   1  17
HETATM   17  C   UNL     1      48.097  37.651  40.996  1.00  0.00     0.266 C 
HETATM   18  O   UNL     1      48.921  38.480  40.183  1.00  0.00    -0.326 OA
HETATM   19  C   UNL     1      50.327  38.229  40.408  1.00  0.00     0.176 C 
HETATM   20  C   UNL     1      50.660  36.810  39.924  1.00  0.00     0.170 C 
HETATM   21  C   UNL     1      49.777  35.807  40.693  1.00  0.00     0.172 C 
HETATM   22  C   UNL     1      48.291  36.174  40.602  1.00  0.00     0.197 C 
BRANCH  19  23
HETATM   23  C   UNL     1      51.108  39.310  39.657  1.00  0.00     0.170 C 
BRANCH  23  24
HETATM   24  O   UNL     1      52.393  38.798  39.295  1.00  0.00    -0.380 OA
HETATM   25  H   UNL     1      52.271  37.860  39.040  1.00  0.00     0.211 HD
ENDBRANCH  23  24
ENDBRANCH  19  23
BRANCH  20  26
HETATM   26  O   UNL     1      50.447  36.719  38.509  1.00  0.00    -0.380 OA
HETATM   27  H   UNL     1      50.498  35.787  38.240  1.00  0.00     0.211 HD
ENDBRANCH  20  26
BRANCH  21  28
HETATM   28  O   UNL     1      49.975  34.473  40.220  1.00  0.00    -0.380 OA
HETATM   29  H   UNL     1      50.154  33.930  41.012  1.00  0.00     0.211 HD
ENDBRANCH  21  28
BRANCH  22  30
HETATM   30  O   UNL     1      47.545  35.303  41.466  1.00  0.00    -0.378 OA
HETATM   31  H   UNL     1      47.847  34.396  41.263  1.00  0.00     0.211 HD
ENDBRANCH  22  30
ENDBRANCH   1  17
TORSDOF 12
ENDMDL
MODEL 10
REMARK VINA RESULT:    -4.753      3.976      8.536
REMARK INTER + INTRA:          -8.472
REMARK INTER:                  -7.220
REMARK INTRA:                  -1.252
REMARK UNBOUND:                -1.496
REMARK  12 active torsions:
REMARK  status: ('A' for Active; 'I' for Inactive)
REMARK    1  A    between atoms: O_1  and  C_12 
REMARK    2  A    between atoms: O_1  and  C_14 
REMARK    3  A    between atoms: O_4  and  C_13 
REMARK    4  A    between atoms: O_5  and  C_16 
REMARK    5  A    between atoms: O_6  and  C_17 
REMARK    6  A    between atoms: O_7  and  C_18 
REMARK    7  A    between atoms: O_8  and  C_19 
REMARK    8  A    between atoms: O_9  and  C_21 
REMARK    9  A    between atoms: O_10  and  C_22 
REMARK   10  A    between atoms: O_11  and  C_23 
REMARK   11  A    between atoms: C_15  and  C_22 
REMARK   12  A    between atoms: C_20  and  C_23 
ROOT
HETATM    1  O   UNL     1      47.487  37.840  40.433  1.00  0.00    -0.326 OA
ENDROOT
BRANCH   1   2
HETATM    2  C   UNL     1      48.573  36.902  40.584  1.00  0.00     0.177 C 
HETATM    3  C   UNL     1      48.059  35.455  40.426  1.00  0.00     0.172 C 
HETATM    4  C   UNL     1      49.211  34.455  40.269  1.00  0.00     0.197 C 
HETATM    5  C   UNL     1      50.217  34.942  39.215  1.00  0.00     0.263 C 
HETATM    6  O   UNL     1      50.685  36.246  39.510  1.00  0.00    -0.327 OA
HETATM    7  C   UNL     1      49.615  37.205  39.493  1.00  0.00     0.177 C 
BRANCH   3   8
HETATM    8  O   UNL     1      47.284  35.085  41.581  1.00  0.00    -0.380 OA
HETATM    9  H   UNL     1      46.403  34.837  41.234  1.00  0.00     0.211 HD
ENDBRANCH   3   8
BRANCH   4  10
HETATM   10  O   UNL     1      48.702  33.169  39.875  1.00  0.00    -0.378 OA
HETATM   11  H   UNL     1      48.103  32.897  40.597  1.00  0.00     0.211 HD
ENDBRANCH   4  10
BRANCH   5  12
HETATM   12  O   UNL     1      51.332  34.059  39.228  1.00  0.00    -0.359 OA
HETATM   13  H   UNL     1      51.639  34.047  40.149  1.00  0.00     0.213 HD
ENDBRANCH   5  12
BRANCH   7  14
HETATM   14  C   UNL     1      50.246  38.587  39.700  1.00  0.00     0.170 C 
BRANCH  14  15
HETATM   15  O   UNL     1      49.481  39.571  39.005  1.00  0.00    -0.380 OA
HETATM   16  H   UNL     1      49.095  39.112  38.234  1.00  0.00     0.211 HD
ENDBRANCH  14  15
ENDBRANCH   7  14
ENDBRANCH   1   2
BRANCH   1  17
HETATM   17  C   UNL     1      47.034  38.407  41.669  1.00  0.00     0.266 C 
HETATM   18  O   UNL     1      45.878  37.709  42.118  1.00  0.00    -0.326 OA
HETATM   19  C   UNL     1      45.416  38.198  43.398  1.00  0.00     0.176 C 
HETATM   20  C   UNL     1      44.918  39.640  43.226  1.00  0.00     0.170 C 
HETATM   21  C   UNL     1      46.075  40.499  42.678  1.00  0.00     0.172 C 
HETATM   22  C   UNL     1      46.686  39.886  41.412  1.00  0.00     0.197 C 
BRANCH  19  23
HETATM   23  C   UNL     1      44.319  37.246  43.879  1.00  0.00     0.170 C 
BRANCH  23  24
HETATM   24  O   UNL     1      44.711  36.666  45.126  1.00  0.00    -0.380 OA
HETATM   25  H   UNL     1      44.158  35.868  45.263  1.00  0.00     0.211 HD
ENDBRANCH  23  24
ENDBRANCH  19  23
BRANCH  20  26
HETATM   26  O   UNL     1      43.787  39.660  42.344  1.00  0.00    -0.380 OA
HETATM   27  H   UNL     1      43.308  38.818  42.425  1.00  0.00     0.211 HD
ENDBRANCH  20  26
BRANCH  21  28
HETATM   28  O   UNL     1      45.646  41.836  42.408  1.00  0.00    -0.380 OA
HETATM   29  H   UNL     1      45.971  42.378  43.153  1.00  0.00     0.211 HD
ENDBRANCH  21  28
BRANCH  22  30
HETATM   30  O   UNL     1      47.853  40.640  41.049  1.00  0.00    -0.378 OA
HETATM   31  H   UNL     1      48.620  40.092  41.303  1.00  0.00     0.211 HD
ENDBRANCH  22  30
ENDBRANCH   1  17
TORSDOF 12
ENDMDL
