MODEL 1
REMARK VINA RESULT:    -5.690      0.000      0.000
REMARK INTER + INTRA:          -9.625
REMARK INTER:                  -8.351
REMARK INTRA:                  -1.274
REMARK UNBOUND:                -1.274
REMARK  12 active torsions:
REMARK  status: ('A' for Active; 'I' for Inactive)
REMARK    1  A    between atoms: O_1  and  C_12 
REMARK    2  A    between atoms: O_1  and  C_14 
REMARK    3  A    between atoms: O_4  and  C_13 
REMARK    4  A    between atoms: O_5  and  C_16 
REMARK    5  A    between atoms: O_6  and  C_17 
REMARK    6  A    between atoms: O_7  and  C_18 
REMARK    7  A    between atoms: O_8  and  C_19 
REMARK    8  A    between atoms: O_9  and  C_21 
REMARK    9  A    between atoms: O_10  and  C_22 
REMARK   10  A    between atoms: O_11  and  C_23 
REMARK   11  A    between atoms: C_15  and  C_22 
REMARK   12  A    between atoms: C_20  and  C_23 
ROOT
HETATM    1  O   UNL     1      43.736  40.064  45.002  1.00  0.00    -0.326 OA
ENDROOT
BRANCH   1   2
HETATM    2  C   UNL     1      43.225  39.078  45.922  1.00  0.00     0.177 C 
HETATM    3  C   UNL     1      44.322  38.655  46.922  1.00  0.00     0.172 C 
HETATM    4  C   UNL     1      43.746  37.855  48.096  1.00  0.00     0.197 C 
HETATM    5  C   UNL     1      42.517  38.561  48.687  1.00  0.00     0.263 C 
HETATM    6  O   UNL     1      41.540  38.820  47.694  1.00  0.00    -0.327 OA
HETATM    7  C   UNL     1      42.044  39.707  46.682  1.00  0.00     0.177 C 
BRANCH   3   8
HETATM    8  O   UNL     1      45.305  37.845  46.252  1.00  0.00    -0.380 OA
HETATM    9  H   UNL     1      45.010  36.921  46.377  1.00  0.00     0.211 HD
ENDBRANCH   3   8
BRANCH   4  10
HETATM   10  O   UNL     1      44.739  37.697  49.124  1.00  0.00    -0.378 OA
HETATM   11  H   UNL     1      44.728  38.536  49.623  1.00  0.00     0.211 HD
ENDBRANCH   4  10
BRANCH   5  12
HETATM   12  O   UNL     1      41.938  37.700  49.661  1.00  0.00    -0.359 OA
HETATM   13  H   UNL     1      41.097  38.120  49.906  1.00  0.00     0.213 HD
ENDBRANCH   5  12
BRANCH   7  14
HETATM   14  C   UNL     1      40.878  40.016  45.734  1.00  0.00     0.170 C 
BRANCH  14  15
HETATM   15  O   UNL     1      40.991  41.357  45.257  1.00  0.00    -0.380 OA
HETATM   16  H   UNL     1      40.831  41.310  44.295  1.00  0.00     0.211 HD
ENDBRANCH  14  15
ENDBRANCH   7  14
ENDBRANCH   1   2
BRANCH   1  17
HETATM   17  C   UNL     1      43.762  39.627  43.637  1.00  0.00     0.266 C 
HETATM   18  O   UNL     1      44.926  38.840  43.411  1.00  0.00    -0.326 OA
HETATM   19  C   UNL     1      44.970  38.316  42.064  1.00  0.00     0.176 C 
HETATM   20  C   UNL     1      45.133  39.487  41.083  1.00  0.00     0.170 C 
HETATM   21  C   UNL     1      43.951  40.458  41.273  1.00  0.00     0.172 C 
HETATM   22  C   UNL     1      43.793  40.879  42.739  1.00  0.00     0.197 C 
BRANCH  19  23
HETATM   23  C   UNL     1      46.132  37.322  41.999  1.00  0.00     0.170 C 
BRANCH  23  24
HETATM   24  O   UNL     1      45.687  36.116  41.375  1.00  0.00    -0.380 OA
HETATM   25  H   UNL     1      46.378  35.438  41.526  1.00  0.00     0.211 HD
ENDBRANCH  23  24
ENDBRANCH  19  23
BRANCH  20  26
HETATM   26  O   UNL     1      46.390  40.138  41.312  1.00  0.00    -0.380 OA
HETATM   27  H   UNL     1      47.038  39.479  41.613  1.00  0.00     0.211 HD
ENDBRANCH  20  26
BRANCH  21  28
HETATM   28  O   UNL     1      44.095  41.618  40.450  1.00  0.00    -0.380 OA
HETATM   29  H   UNL     1      44.268  41.288  39.547  1.00  0.00     0.211 HD
ENDBRANCH  21  28
BRANCH  22  30
HETATM   30  O   UNL     1      42.587  41.647  42.873  1.00  0.00    -0.378 OA
HETATM   31  H   UNL     1      42.758  42.499  42.428  1.00  0.00     0.211 HD
ENDBRANCH  22  30
ENDBRANCH   1  17
TORSDOF 12
ENDMDL
MODEL 2
REMARK VINA RESULT:    -5.629      1.920      3.402
REMARK INTER + INTRA:          -9.535
REMARK INTER:                  -8.158
REMARK INTRA:                  -1.377
REMARK UNBOUND:                -1.274
REMARK  12 active torsions:
REMARK  status: ('A' for Active; 'I' for Inactive)
REMARK    1  A    between atoms: O_1  and  C_12 
REMARK    2  A    between atoms: O_1  and  C_14 
REMARK    3  A    between atoms: O_4  and  C_13 
REMARK    4  A    between atoms: O_5  and  C_16 
REMARK    5  A    between atoms: O_6  and  C_17 
REMARK    6  A    between atoms: O_7  and  C_18 
REMARK    7  A    between atoms: O_8  and  C_19 
REMARK    8  A    between atoms: O_9  and  C_21 
REMARK    9  A    between atoms: O_10  and  C_22 
REMARK   10  A    between atoms: O_11  and  C_23 
REMARK   11  A    between atoms: C_15  and  C_22 
REMARK   12  A    between atoms: C_20  and  C_23 
ROOT
HETATM    1  O   UNL     1      43.262  38.052  45.474  1.00  0.00    -0.326 OA
ENDROOT
BRANCH   1   2
HETATM    2  C   UNL     1      43.664  38.068  46.859  1.00  0.00     0.177 C 
HETATM    3  C   UNL     1      43.533  39.492  47.441  1.00  0.00     0.172 C 
HETATM    4  C   UNL     1      43.648  39.496  48.970  1.00  0.00     0.197 C 
HETATM    5  C   UNL     1      42.745  38.418  49.588  1.00  0.00     0.263 C 
HETATM    6  O   UNL     1      43.015  37.140  49.040  1.00  0.00    -0.327 OA
HETATM    7  C   UNL     1      42.745  37.105  47.630  1.00  0.00     0.177 C 
BRANCH   3   8
HETATM    8  O   UNL     1      44.565  40.336  46.899  1.00  0.00    -0.380 OA
HETATM    9  H   UNL     1      45.081  39.762  46.297  1.00  0.00     0.211 HD
ENDBRANCH   3   8
BRANCH   4  10
HETATM   10  O   UNL     1      43.272  40.782  49.493  1.00  0.00    -0.378 OA
HETATM   11  H   UNL     1      43.917  41.411  49.116  1.00  0.00     0.211 HD
ENDBRANCH   4  10
BRANCH   5  12
HETATM   12  O   UNL     1      43.012  38.365  50.984  1.00  0.00    -0.359 OA
HETATM   13  H   UNL     1      43.011  39.290  51.280  1.00  0.00     0.213 HD
ENDBRANCH   5  12
BRANCH   7  14
HETATM   14  C   UNL     1      42.950  35.657  47.168  1.00  0.00     0.170 C 
BRANCH  14  15
HETATM   15  O   UNL     1      42.218  35.431  45.963  1.00  0.00    -0.380 OA
HETATM   16  H   UNL     1      41.278  35.555  46.197  1.00  0.00     0.211 HD
ENDBRANCH  14  15
ENDBRANCH   7  14
ENDBRANCH   1   2
BRANCH   1  17
HETATM   17  C   UNL     1      44.348  38.212  44.551  1.00  0.00     0.266 C 
HETATM   18  O   UNL     1      44.280  39.503  43.955  1.00  0.00    -0.326 OA
HETATM   19  C   UNL     1      45.393  39.744  43.063  1.00  0.00     0.176 C 
HETATM   20  C   UNL     1      45.281  38.790  41.865  1.00  0.00     0.170 C 
HETATM   21  C   UNL     1      45.281  37.340  42.387  1.00  0.00     0.172 C 
HETATM   22  C   UNL     1      44.212  37.126  43.467  1.00  0.00     0.197 C 
BRANCH  19  23
HETATM   23  C   UNL     1      45.337  41.218  42.655  1.00  0.00     0.170 C 
BRANCH  23  24
HETATM   24  O   UNL     1      45.859  41.361  41.332  1.00  0.00    -0.380 OA
HETATM   25  H   UNL     1      46.763  41.730  41.414  1.00  0.00     0.211 HD
ENDBRANCH  23  24
ENDBRANCH  19  23
BRANCH  20  26
HETATM   26  O   UNL     1      44.088  39.081  41.124  1.00  0.00    -0.380 OA
HETATM   27  H   UNL     1      43.330  39.083  41.732  1.00  0.00     0.211 HD
ENDBRANCH  20  26
BRANCH  21  28
HETATM   28  O   UNL     1      45.086  36.405  41.323  1.00  0.00    -0.380 OA
HETATM   29  H   UNL     1      44.524  36.860  40.666  1.00  0.00     0.211 HD
ENDBRANCH  21  28
BRANCH  22  30
HETATM   30  O   UNL     1      44.372  35.812  44.023  1.00  0.00    -0.378 OA
HETATM   31  H   UNL     1      45.317  35.730  44.256  1.00  0.00     0.211 HD
ENDBRANCH  22  30
ENDBRANCH   1  17
TORSDOF 12
ENDMDL
MODEL 3
REMARK VINA RESULT:    -5.335      9.684     11.288
REMARK INTER + INTRA:          -9.104
REMARK INTER:                  -7.861
REMARK INTRA:                  -1.243
REMARK UNBOUND:                -1.274
REMARK  12 active torsions:
REMARK  status: ('A' for Active; 'I' for Inactive)
REMARK    1  A    between atoms: O_1  and  C_12 
REMARK    2  A    between atoms: O_1  and  C_14 
REMARK    3  A    between atoms: O_4  and  C_13 
REMARK    4  A    between atoms: O_5  and  C_16 
REMARK    5  A    between atoms: O_6  and  C_17 
REMARK    6  A    between atoms: O_7  and  C_18 
REMARK    7  A    between atoms: O_8  and  C_19 
REMARK    8  A    between atoms: O_9  and  C_21 
REMARK    9  A    between atoms: O_10  and  C_22 
REMARK   10  A    between atoms: O_11  and  C_23 
REMARK   11  A    between atoms: C_15  and  C_22 
REMARK   12  A    between atoms: C_20  and  C_23 
ROOT
HETATM    1  O   UNL     1      42.891  48.365  38.283  1.00  0.00    -0.326 OA
ENDROOT
BRANCH   1   2
HETATM    2  C   UNL     1      41.759  47.623  37.783  1.00  0.00     0.177 C 
HETATM    3  C   UNL     1      41.716  46.216  38.417  1.00  0.00     0.172 C 
HETATM    4  C   UNL     1      40.376  45.516  38.159  1.00  0.00     0.197 C 
HETATM    5  C   UNL     1      39.200  46.449  38.485  1.00  0.00     0.263 C 
HETATM    6  O   UNL     1      39.301  47.674  37.780  1.00  0.00    -0.327 OA
HETATM    7  C   UNL     1      40.483  48.400  38.154  1.00  0.00     0.177 C 
BRANCH   3   8
HETATM    8  O   UNL     1      42.772  45.405  37.872  1.00  0.00    -0.380 OA
HETATM    9  H   UNL     1      43.184  45.950  37.171  1.00  0.00     0.211 HD
ENDBRANCH   3   8
BRANCH   4  10
HETATM   10  O   UNL     1      40.273  44.329  38.966  1.00  0.00    -0.378 OA
HETATM   11  H   UNL     1      39.386  43.967  38.777  1.00  0.00     0.211 HD
ENDBRANCH   4  10
BRANCH   5  12
HETATM   12  O   UNL     1      37.999  45.804  38.079  1.00  0.00    -0.359 OA
HETATM   13  H   UNL     1      38.223  44.861  38.016  1.00  0.00     0.213 HD
ENDBRANCH   5  12
BRANCH   7  14
HETATM   14  C   UNL     1      40.429  49.751  37.432  1.00  0.00     0.170 C 
BRANCH  14  15
HETATM   15  O   UNL     1      41.175  50.719  38.171  1.00  0.00    -0.380 OA
HETATM   16  H   UNL     1      40.543  51.113  38.803  1.00  0.00     0.211 HD
ENDBRANCH  14  15
ENDBRANCH   7  14
ENDBRANCH   1   2
BRANCH   1  17
HETATM   17  C   UNL     1      44.048  48.298  37.438  1.00  0.00     0.266 C 
HETATM   18  O   UNL     1      43.788  47.427  36.343  1.00  0.00    -0.326 OA
HETATM   19  C   UNL     1      44.900  47.373  35.421  1.00  0.00     0.176 C 
HETATM   20  C   UNL     1      46.095  46.715  36.125  1.00  0.00     0.170 C 
HETATM   21  C   UNL     1      46.442  47.539  37.381  1.00  0.00     0.172 C 
HETATM   22  C   UNL     1      45.216  47.748  38.279  1.00  0.00     0.197 C 
BRANCH  19  23
HETATM   23  C   UNL     1      44.433  46.592  34.190  1.00  0.00     0.170 C 
BRANCH  23  24
HETATM   24  O   UNL     1      43.429  45.652  34.581  1.00  0.00    -0.380 OA
HETATM   25  H   UNL     1      42.568  46.000  34.271  1.00  0.00     0.211 HD
ENDBRANCH  23  24
ENDBRANCH  19  23
BRANCH  20  26
HETATM   26  O   UNL     1      45.772  45.358  36.460  1.00  0.00    -0.380 OA
HETATM   27  H   UNL     1      45.966  44.789  35.697  1.00  0.00     0.211 HD
ENDBRANCH  20  26
BRANCH  21  28
HETATM   28  O   UNL     1      47.491  46.923  38.132  1.00  0.00    -0.380 OA
HETATM   29  H   UNL     1      47.171  46.880  39.055  1.00  0.00     0.211 HD
ENDBRANCH  21  28
BRANCH  22  30
HETATM   30  O   UNL     1      45.567  48.653  39.337  1.00  0.00    -0.378 OA
HETATM   31  H   UNL     1      45.563  49.546  38.943  1.00  0.00     0.211 HD
ENDBRANCH  22  30
ENDBRANCH   1  17
TORSDOF 12
ENDMDL
MODEL 4
REMARK VINA RESULT:    -5.202      1.662      6.663
REMARK INTER + INTRA:          -8.909
REMARK INTER:                  -7.898
REMARK INTRA:                  -1.011
REMARK UNBOUND:                -1.274
REMARK  12 active torsions:
REMARK  status: ('A' for Active; 'I' for Inactive)
REMARK    1  A    between atoms: O_1  and  C_12 
REMARK    2  A    between atoms: O_1  and  C_14 
REMARK    3  A    between atoms: O_4  and  C_13 
REMARK    4  A    between atoms: O_5  and  C_16 
REMARK    5  A    between atoms: O_6  and  C_17 
REMARK    6  A    between atoms: O_7  and  C_18 
REMARK    7  A    between atoms: O_8  and  C_19 
REMARK    8  A    between atoms: O_9  and  C_21 
REMARK    9  A    between atoms: O_10  and  C_22 
REMARK   10  A    between atoms: O_11  and  C_23 
REMARK   11  A    between atoms: C_15  and  C_22 
REMARK   12  A    between atoms: C_20  and  C_23 
ROOT
HETATM    1  O   UNL     1      45.296  37.905  44.622  1.00  0.00    -0.326 OA
ENDROOT
BRANCH   1   2
HETATM    2  C   UNL     1      44.477  38.085  43.449  1.00  0.00     0.177 C 
HETATM    3  C   UNL     1      44.277  39.587  43.157  1.00  0.00     0.172 C 
HETATM    4  C   UNL     1      43.685  39.824  41.763  1.00  0.00     0.197 C 
HETATM    5  C   UNL     1      44.447  39.017  40.702  1.00  0.00     0.263 C 
HETATM    6  O   UNL     1      44.491  37.640  41.031  1.00  0.00    -0.327 OA
HETATM    7  C   UNL     1      45.195  37.416  42.263  1.00  0.00     0.177 C 
BRANCH   3   8
HETATM    8  O   UNL     1      43.391  40.159  44.137  1.00  0.00    -0.380 OA
HETATM    9  H   UNL     1      43.973  40.617  44.778  1.00  0.00     0.211 HD
ENDBRANCH   3   8
BRANCH   4  10
HETATM   10  O   UNL     1      43.748  41.221  41.428  1.00  0.00    -0.378 OA
HETATM   11  H   UNL     1      44.073  41.250  40.508  1.00  0.00     0.211 HD
ENDBRANCH   4  10
BRANCH   5  12
HETATM   12  O   UNL     1      43.759  39.153  39.464  1.00  0.00    -0.359 OA
HETATM   13  H   UNL     1      43.205  39.945  39.565  1.00  0.00     0.213 HD
ENDBRANCH   5  12
BRANCH   7  14
HETATM   14  C   UNL     1      45.290  35.898  42.459  1.00  0.00     0.170 C 
BRANCH  14  15
HETATM   15  O   UNL     1      44.984  35.238  41.231  1.00  0.00    -0.380 OA
HETATM   16  H   UNL     1      45.299  34.320  41.339  1.00  0.00     0.211 HD
ENDBRANCH  14  15
ENDBRANCH   7  14
ENDBRANCH   1   2
BRANCH   1  17
HETATM   17  C   UNL     1      44.560  37.519  45.791  1.00  0.00     0.266 C 
HETATM   18  O   UNL     1      43.165  37.636  45.534  1.00  0.00    -0.326 OA
HETATM   19  C   UNL     1      42.371  37.196  46.660  1.00  0.00     0.176 C 
HETATM   20  C   UNL     1      42.600  38.159  47.834  1.00  0.00     0.170 C 
HETATM   21  C   UNL     1      44.104  38.172  48.174  1.00  0.00     0.172 C 
HETATM   22  C   UNL     1      44.963  38.466  46.938  1.00  0.00     0.197 C 
BRANCH  19  23
HETATM   23  C   UNL     1      40.911  37.158  46.200  1.00  0.00     0.170 C 
BRANCH  23  24
HETATM   24  O   UNL     1      40.073  37.639  47.254  1.00  0.00    -0.380 OA
HETATM   25  H   UNL     1      39.200  37.847  46.859  1.00  0.00     0.211 HD
ENDBRANCH  23  24
ENDBRANCH  19  23
BRANCH  20  26
HETATM   26  O   UNL     1      42.130  39.468  47.484  1.00  0.00    -0.380 OA
HETATM   27  H   UNL     1      41.163  39.442  47.390  1.00  0.00     0.211 HD
ENDBRANCH  20  26
BRANCH  21  28
HETATM   28  O   UNL     1      44.395  39.123  49.201  1.00  0.00    -0.380 OA
HETATM   29  H   UNL     1      44.844  38.623  49.911  1.00  0.00     0.211 HD
ENDBRANCH  21  28
BRANCH  22  30
HETATM   30  O   UNL     1      46.346  38.304  47.286  1.00  0.00    -0.378 OA
HETATM   31  H   UNL     1      46.356  37.866  48.159  1.00  0.00     0.211 HD
ENDBRANCH  22  30
ENDBRANCH   1  17
TORSDOF 12
ENDMDL
MODEL 5
REMARK VINA RESULT:    -5.116     24.099     26.081
REMARK INTER + INTRA:          -8.783
REMARK INTER:                  -7.229
REMARK INTRA:                  -1.554
REMARK UNBOUND:                -1.274
REMARK  12 active torsions:
REMARK  status: ('A' for Active; 'I' for Inactive)
REMARK    1  A    between atoms: O_1  and  C_12 
REMARK    2  A    between atoms: O_1  and  C_14 
REMARK    3  A    between atoms: O_4  and  C_13 
REMARK    4  A    between atoms: O_5  and  C_16 
REMARK    5  A    between atoms: O_6  and  C_17 
REMARK    6  A    between atoms: O_7  and  C_18 
REMARK    7  A    between atoms: O_8  and  C_19 
REMARK    8  A    between atoms: O_9  and  C_21 
REMARK    9  A    between atoms: O_10  and  C_22 
REMARK   10  A    between atoms: O_11  and  C_23 
REMARK   11  A    between atoms: C_15  and  C_22 
REMARK   12  A    between atoms: C_20  and  C_23 
ROOT
HETATM    1  O   UNL     1      38.664  57.570  59.497  1.00  0.00    -0.326 OA
ENDROOT
BRANCH   1   2
HETATM    2  C   UNL     1      37.402  57.358  58.833  1.00  0.00     0.177 C 
HETATM    3  C   UNL     1      36.294  57.058  59.866  1.00  0.00     0.172 C 
HETATM    4  C   UNL     1      34.896  57.134  59.242  1.00  0.00     0.197 C 
HETATM    5  C   UNL     1      34.734  58.422  58.421  1.00  0.00     0.263 C 
HETATM    6  O   UNL     1      35.756  58.548  57.448  1.00  0.00    -0.327 OA
HETATM    7  C   UNL     1      37.054  58.640  58.057  1.00  0.00     0.177 C 
BRANCH   3   8
HETATM    8  O   UNL     1      36.483  55.739  60.412  1.00  0.00    -0.380 OA
HETATM    9  H   UNL     1      37.252  55.367  59.933  1.00  0.00     0.211 HD
ENDBRANCH   3   8
BRANCH   4  10
HETATM   10  O   UNL     1      33.891  57.101  60.270  1.00  0.00    -0.378 OA
HETATM   11  H   UNL     1      33.091  57.483  59.860  1.00  0.00     0.211 HD
ENDBRANCH   4  10
BRANCH   5  12
HETATM   12  O   UNL     1      33.485  58.361  57.744  1.00  0.00    -0.359 OA
HETATM   13  H   UNL     1      33.576  57.638  57.102  1.00  0.00     0.213 HD
ENDBRANCH   5  12
BRANCH   7  14
HETATM   14  C   UNL     1      38.063  58.896  56.931  1.00  0.00     0.170 C 
BRANCH  14  15
HETATM   15  O   UNL     1      38.997  59.893  57.343  1.00  0.00    -0.380 OA
HETATM   16  H   UNL     1      39.230  60.388  56.533  1.00  0.00     0.211 HD
ENDBRANCH  14  15
ENDBRANCH   7  14
ENDBRANCH   1   2
BRANCH   1  17
HETATM   17  C   UNL     1      38.603  58.517  60.572  1.00  0.00     0.266 C 
HETATM   18  O   UNL     1      39.248  59.724  60.180  1.00  0.00    -0.326 OA
HETATM   19  C   UNL     1      39.159  60.741  61.204  1.00  0.00     0.176 C 
HETATM   20  C   UNL     1      39.968  60.284  62.427  1.00  0.00     0.170 C 
HETATM   21  C   UNL     1      39.401  58.937  62.917  1.00  0.00     0.172 C 
HETATM   22  C   UNL     1      39.330  57.905  61.785  1.00  0.00     0.197 C 
BRANCH  19  23
HETATM   23  C   UNL     1      39.685  62.044  60.598  1.00  0.00     0.170 C 
BRANCH  23  24
HETATM   24  O   UNL     1      40.255  61.772  59.315  1.00  0.00    -0.380 OA
HETATM   25  H   UNL     1      40.608  60.858  59.342  1.00  0.00     0.211 HD
ENDBRANCH  23  24
ENDBRANCH  19  23
BRANCH  20  26
HETATM   26  O   UNL     1      41.354  60.173  62.076  1.00  0.00    -0.380 OA
HETATM   27  H   UNL     1      41.425  59.867  61.156  1.00  0.00     0.211 HD
ENDBRANCH  20  26
BRANCH  21  28
HETATM   28  O   UNL     1      40.174  58.412  64.000  1.00  0.00    -0.380 OA
HETATM   29  H   UNL     1      40.033  59.022  64.751  1.00  0.00     0.211 HD
ENDBRANCH  21  28
BRANCH  22  30
HETATM   30  O   UNL     1      38.648  56.736  62.265  1.00  0.00    -0.378 OA
HETATM   31  H   UNL     1      39.303  56.237  62.791  1.00  0.00     0.211 HD
ENDBRANCH  22  30
ENDBRANCH   1  17
TORSDOF 12
ENDMDL
MODEL 6
REMARK VINA RESULT:    -5.005     11.869     14.256
REMARK INTER + INTRA:          -8.619
REMARK INTER:                  -7.329
REMARK INTRA:                  -1.291
REMARK UNBOUND:                -1.274
REMARK  12 active torsions:
REMARK  status: ('A' for Active; 'I' for Inactive)
REMARK    1  A    between atoms: O_1  and  C_12 
REMARK    2  A    between atoms: O_1  and  C_14 
REMARK    3  A    between atoms: O_4  and  C_13 
REMARK    4  A    between atoms: O_5  and  C_16 
REMARK    5  A    between atoms: O_6  and  C_17 
REMARK    6  A    between atoms: O_7  and  C_18 
REMARK    7  A    between atoms: O_8  and  C_19 
REMARK    8  A    between atoms: O_9  and  C_21 
REMARK    9  A    between atoms: O_10  and  C_22 
REMARK   10  A    between atoms: O_11  and  C_23 
REMARK   11  A    between atoms: C_15  and  C_22 
REMARK   12  A    between atoms: C_20  and  C_23 
ROOT
HETATM    1  O   UNL     1      54.403  30.747  50.178  1.00  0.00    -0.326 OA
ENDROOT
BRANCH   1   2
HETATM    2  C   UNL     1      53.021  30.465  49.873  1.00  0.00     0.177 C 
HETATM    3  C   UNL     1      52.175  31.752  49.974  1.00  0.00     0.172 C 
HETATM    4  C   UNL     1      50.781  31.567  49.363  1.00  0.00     0.197 C 
HETATM    5  C   UNL     1      50.875  30.918  47.974  1.00  0.00     0.263 C 
HETATM    6  O   UNL     1      51.598  29.700  48.019  1.00  0.00    -0.327 OA
HETATM    7  C   UNL     1      52.957  29.912  48.438  1.00  0.00     0.177 C 
BRANCH   3   8
HETATM    8  O   UNL     1      52.026  32.129  51.355  1.00  0.00    -0.380 OA
HETATM    9  H   UNL     1      51.363  31.510  51.723  1.00  0.00     0.211 HD
ENDBRANCH   3   8
BRANCH   4  10
HETATM   10  O   UNL     1      50.118  32.838  49.245  1.00  0.00    -0.378 OA
HETATM   11  H   UNL     1      50.148  33.056  48.293  1.00  0.00     0.211 HD
ENDBRANCH   4  10
BRANCH   5  12
HETATM   12  O   UNL     1      49.555  30.630  47.530  1.00  0.00    -0.359 OA
HETATM   13  H   UNL     1      49.661  30.235  46.649  1.00  0.00     0.213 HD
ENDBRANCH   5  12
BRANCH   7  14
HETATM   14  C   UNL     1      53.675  28.561  48.334  1.00  0.00     0.170 C 
BRANCH  14  15
HETATM   15  O   UNL     1      55.011  28.764  47.872  1.00  0.00    -0.380 OA
HETATM   16  H   UNL     1      54.932  29.309  47.066  1.00  0.00     0.211 HD
ENDBRANCH  14  15
ENDBRANCH   7  14
ENDBRANCH   1   2
BRANCH   1  17
HETATM   17  C   UNL     1      54.940  31.865  49.458  1.00  0.00     0.266 C 
HETATM   18  O   UNL     1      55.853  31.400  48.470  1.00  0.00    -0.326 OA
HETATM   19  C   UNL     1      56.376  32.484  47.668  1.00  0.00     0.176 C 
HETATM   20  C   UNL     1      57.243  33.385  48.560  1.00  0.00     0.170 C 
HETATM   21  C   UNL     1      56.375  33.910  49.721  1.00  0.00     0.172 C 
HETATM   22  C   UNL     1      55.675  32.768  50.467  1.00  0.00     0.197 C 
BRANCH  19  23
HETATM   23  C   UNL     1      57.164  31.857  46.515  1.00  0.00     0.170 C 
BRANCH  23  24
HETATM   24  O   UNL     1      56.880  32.568  45.308  1.00  0.00    -0.380 OA
HETATM   25  H   UNL     1      57.731  32.912  44.966  1.00  0.00     0.211 HD
ENDBRANCH  23  24
ENDBRANCH  19  23
BRANCH  20  26
HETATM   26  O   UNL     1      58.373  32.646  49.042  1.00  0.00    -0.380 OA
HETATM   27  H   UNL     1      58.436  32.756  50.005  1.00  0.00     0.211 HD
ENDBRANCH  20  26
BRANCH  21  28
HETATM   28  O   UNL     1      57.151  34.683  50.640  1.00  0.00    -0.380 OA
HETATM   29  H   UNL     1      56.832  35.603  50.554  1.00  0.00     0.211 HD
ENDBRANCH  21  28
BRANCH  22  30
HETATM   30  O   UNL     1      54.763  33.330  51.423  1.00  0.00    -0.378 OA
HETATM   31  H   UNL     1      53.996  33.651  50.910  1.00  0.00     0.211 HD
ENDBRANCH  22  30
ENDBRANCH   1  17
TORSDOF 12
ENDMDL
MODEL 7
REMARK VINA RESULT:    -4.970     12.004     14.927
REMARK INTER + INTRA:          -8.568
REMARK INTER:                  -7.235
REMARK INTRA:                  -1.333
REMARK UNBOUND:                -1.274
REMARK  12 active torsions:
REMARK  status: ('A' for Active; 'I' for Inactive)
REMARK    1  A    between atoms: O_1  and  C_12 
REMARK    2  A    between atoms: O_1  and  C_14 
REMARK    3  A    between atoms: O_4  and  C_13 
REMARK    4  A    between atoms: O_5  and  C_16 
REMARK    5  A    between atoms: O_6  and  C_17 
REMARK    6  A    between atoms: O_7  and  C_18 
REMARK    7  A    between atoms: O_8  and  C_19 
REMARK    8  A    between atoms: O_9  and  C_21 
REMARK    9  A    between atoms: O_10  and  C_22 
REMARK   10  A    between atoms: O_11  and  C_23 
REMARK   11  A    between atoms: C_15  and  C_22 
REMARK   12  A    between atoms: C_20  and  C_23 
ROOT
HETATM    1  O   UNL     1      55.053  30.210  49.693  1.00  0.00    -0.326 OA
ENDROOT
BRANCH   1   2
HETATM    2  C   UNL     1      55.366  31.509  49.150  1.00  0.00     0.177 C 
HETATM    3  C   UNL     1      55.802  32.471  50.276  1.00  0.00     0.172 C 
HETATM    4  C   UNL     1      56.436  33.751  49.718  1.00  0.00     0.197 C 
HETATM    5  C   UNL     1      57.493  33.418  48.655  1.00  0.00     0.263 C 
HETATM    6  O   UNL     1      56.957  32.603  47.628  1.00  0.00    -0.327 OA
HETATM    7  C   UNL     1      56.514  31.335  48.141  1.00  0.00     0.177 C 
BRANCH   3   8
HETATM    8  O   UNL     1      54.661  32.833  51.075  1.00  0.00    -0.380 OA
HETATM    9  H   UNL     1      54.477  32.051  51.635  1.00  0.00     0.211 HD
ENDBRANCH   3   8
BRANCH   4  10
HETATM   10  O   UNL     1      57.054  34.502  50.778  1.00  0.00    -0.378 OA
HETATM   11  H   UNL     1      57.221  33.854  51.488  1.00  0.00     0.211 HD
ENDBRANCH   4  10
BRANCH   5  12
HETATM   12  O   UNL     1      57.929  34.638  48.067  1.00  0.00    -0.359 OA
HETATM   13  H   UNL     1      57.126  35.176  47.968  1.00  0.00     0.213 HD
ENDBRANCH   5  12
BRANCH   7  14
HETATM   14  C   UNL     1      56.071  30.493  46.939  1.00  0.00     0.170 C 
BRANCH  14  15
HETATM   15  O   UNL     1      54.793  30.939  46.487  1.00  0.00    -0.380 OA
HETATM   16  H   UNL     1      54.168  30.725  47.206  1.00  0.00     0.211 HD
ENDBRANCH  14  15
ENDBRANCH   7  14
ENDBRANCH   1   2
BRANCH   1  17
HETATM   17  C   UNL     1      53.671  29.846  49.570  1.00  0.00     0.266 C 
HETATM   18  O   UNL     1      53.009  30.775  48.719  1.00  0.00    -0.326 OA
HETATM   19  C   UNL     1      51.624  30.419  48.504  1.00  0.00     0.176 C 
HETATM   20  C   UNL     1      50.868  30.551  49.835  1.00  0.00     0.170 C 
HETATM   21  C   UNL     1      51.535  29.628  50.874  1.00  0.00     0.172 C 
HETATM   22  C   UNL     1      53.043  29.885  50.976  1.00  0.00     0.197 C 
BRANCH  19  23
HETATM   23  C   UNL     1      51.078  31.347  47.418  1.00  0.00     0.170 C 
BRANCH  23  24
HETATM   24  O   UNL     1      52.149  31.753  46.561  1.00  0.00    -0.380 OA
HETATM   25  H   UNL     1      51.928  31.449  45.656  1.00  0.00     0.211 HD
ENDBRANCH  23  24
ENDBRANCH  19  23
BRANCH  20  26
HETATM   26  O   UNL     1      50.879  31.919  50.264  1.00  0.00    -0.380 OA
HETATM   27  H   UNL     1      51.076  32.488  49.502  1.00  0.00     0.211 HD
ENDBRANCH  20  26
BRANCH  21  28
HETATM   28  O   UNL     1      50.932  29.776  52.162  1.00  0.00    -0.380 OA
HETATM   29  H   UNL     1      49.983  29.941  51.997  1.00  0.00     0.211 HD
ENDBRANCH  21  28
BRANCH  22  30
HETATM   30  O   UNL     1      53.625  28.891  51.834  1.00  0.00    -0.378 OA
HETATM   31  H   UNL     1      54.563  28.821  51.569  1.00  0.00     0.211 HD
ENDBRANCH  22  30
ENDBRANCH   1  17
TORSDOF 12
ENDMDL
MODEL 8
REMARK VINA RESULT:    -4.948      3.584      6.596
REMARK INTER + INTRA:          -8.535
REMARK INTER:                  -7.123
REMARK INTRA:                  -1.413
REMARK UNBOUND:                -1.274
REMARK  12 active torsions:
REMARK  status: ('A' for Active; 'I' for Inactive)
REMARK    1  A    between atoms: O_1  and  C_12 
REMARK    2  A    between atoms: O_1  and  C_14 
REMARK    3  A    between atoms: O_4  and  C_13 
REMARK    4  A    between atoms: O_5  and  C_16 
REMARK    5  A    between atoms: O_6  and  C_17 
REMARK    6  A    between atoms: O_7  and  C_18 
REMARK    7  A    between atoms: O_8  and  C_19 
REMARK    8  A    between atoms: O_9  and  C_21 
REMARK    9  A    between atoms: O_10  and  C_22 
REMARK   10  A    between atoms: O_11  and  C_23 
REMARK   11  A    between atoms: C_15  and  C_22 
REMARK   12  A    between atoms: C_20  and  C_23 
ROOT
HETATM    1  O   UNL     1      46.845  37.908  40.721  1.00  0.00    -0.326 OA
ENDROOT
BRANCH   1   2
HETATM    2  C   UNL     1      46.252  38.592  41.844  1.00  0.00     0.177 C 
HETATM    3  C   UNL     1      46.281  40.120  41.619  1.00  0.00     0.172 C 
HETATM    4  C   UNL     1      45.394  40.861  42.626  1.00  0.00     0.197 C 
HETATM    5  C   UNL     1      44.007  40.210  42.715  1.00  0.00     0.263 C 
HETATM    6  O   UNL     1      44.101  38.827  43.011  1.00  0.00    -0.327 OA
HETATM    7  C   UNL     1      44.796  38.114  41.975  1.00  0.00     0.177 C 
BRANCH   3   8
HETATM    8  O   UNL     1      47.630  40.605  41.749  1.00  0.00    -0.380 OA
HETATM    9  H   UNL     1      47.597  41.279  42.458  1.00  0.00     0.211 HD
ENDBRANCH   3   8
BRANCH   4  10
HETATM   10  O   UNL     1      45.244  42.238  42.236  1.00  0.00    -0.378 OA
HETATM   11  H   UNL     1      44.955  42.211  41.304  1.00  0.00     0.211 HD
ENDBRANCH   4  10
BRANCH   5  12
HETATM   12  O   UNL     1      43.289  40.839  43.770  1.00  0.00    -0.359 OA
HETATM   13  H   UNL     1      42.354  40.775  43.517  1.00  0.00     0.213 HD
ENDBRANCH   5  12
BRANCH   7  14
HETATM   14  C   UNL     1      44.733  36.625  42.333  1.00  0.00     0.170 C 
BRANCH  14  15
HETATM   15  O   UNL     1      44.850  35.841  41.146  1.00  0.00    -0.380 OA
HETATM   16  H   UNL     1      44.809  36.476  40.404  1.00  0.00     0.211 HD
ENDBRANCH  14  15
ENDBRANCH   7  14
ENDBRANCH   1   2
BRANCH   1  17
HETATM   17  C   UNL     1      48.219  37.549  40.919  1.00  0.00     0.266 C 
HETATM   18  O   UNL     1      49.048  38.376  40.110  1.00  0.00    -0.326 OA
HETATM   19  C   UNL     1      50.452  38.103  40.320  1.00  0.00     0.176 C 
HETATM   20  C   UNL     1      50.760  36.685  39.816  1.00  0.00     0.170 C 
HETATM   21  C   UNL     1      49.870  35.686  40.580  1.00  0.00     0.172 C 
HETATM   22  C   UNL     1      48.388  36.075  40.506  1.00  0.00     0.197 C 
BRANCH  19  23
HETATM   23  C   UNL     1      51.243  39.182  39.576  1.00  0.00     0.170 C 
BRANCH  23  24
HETATM   24  O   UNL     1      50.516  39.579  38.410  1.00  0.00    -0.380 OA
HETATM   25  H   UNL     1      49.777  40.148  38.707  1.00  0.00     0.211 HD
ENDBRANCH  23  24
ENDBRANCH  19  23
BRANCH  20  26
HETATM   26  O   UNL     1      50.534  36.615  38.401  1.00  0.00    -0.380 OA
HETATM   27  H   UNL     1      51.185  37.177  37.948  1.00  0.00     0.211 HD
ENDBRANCH  20  26
BRANCH  21  28
HETATM   28  O   UNL     1      50.044  34.354  40.089  1.00  0.00    -0.380 OA
HETATM   29  H   UNL     1      51.006  34.184  40.111  1.00  0.00     0.211 HD
ENDBRANCH  21  28
BRANCH  22  30
HETATM   30  O   UNL     1      47.637  35.204  41.366  1.00  0.00    -0.378 OA
HETATM   31  H   UNL     1      46.704  35.291  41.092  1.00  0.00     0.211 HD
ENDBRANCH  22  30
ENDBRANCH   1  17
TORSDOF 12
ENDMDL
MODEL 9
REMARK VINA RESULT:    -4.767      2.223      3.566
REMARK INTER + INTRA:          -8.271
REMARK INTER:                  -7.261
REMARK INTRA:                  -1.010
REMARK UNBOUND:                -1.274
REMARK  12 active torsions:
REMARK  status: ('A' for Active; 'I' for Inactive)
REMARK    1  A    between atoms: O_1  and  C_12 
REMARK    2  A    between atoms: O_1  and  C_14 
REMARK    3  A    between atoms: O_4  and  C_13 
REMARK    4  A    between atoms: O_5  and  C_16 
REMARK    5  A    between atoms: O_6  and  C_17 
REMARK    6  A    between atoms: O_7  and  C_18 
REMARK    7  A    between atoms: O_8  and  C_19 
REMARK    8  A    between atoms: O_9  and  C_21 
REMARK    9  A    between atoms: O_10  and  C_22 
REMARK   10  A    between atoms: O_11  and  C_23 
REMARK   11  A    between atoms: C_15  and  C_22 
REMARK   12  A    between atoms: C_20  and  C_23 
ROOT
HETATM    1  O   UNL     1      45.772  39.738  42.533  1.00  0.00    -0.326 OA
ENDROOT
BRANCH   1   2
HETATM    2  C   UNL     1      44.571  39.110  43.027  1.00  0.00     0.177 C 
HETATM    3  C   UNL     1      44.925  37.931  43.959  1.00  0.00     0.172 C 
HETATM    4  C   UNL     1      43.704  37.438  44.744  1.00  0.00     0.197 C 
HETATM    5  C   UNL     1      42.955  38.615  45.386  1.00  0.00     0.263 C 
HETATM    6  O   UNL     1      42.605  39.593  44.422  1.00  0.00    -0.327 OA
HETATM    7  C   UNL     1      43.771  40.167  43.808  1.00  0.00     0.177 C 
BRANCH   3   8
HETATM    8  O   UNL     1      45.446  36.837  43.183  1.00  0.00    -0.380 OA
HETATM    9  H   UNL     1      44.660  36.360  42.846  1.00  0.00     0.211 HD
ENDBRANCH   3   8
BRANCH   4  10
HETATM   10  O   UNL     1      44.113  36.522  45.775  1.00  0.00    -0.378 OA
HETATM   11  H   UNL     1      45.062  36.360  45.613  1.00  0.00     0.211 HD
ENDBRANCH   4  10
BRANCH   5  12
HETATM   12  O   UNL     1      41.755  38.115  45.962  1.00  0.00    -0.359 OA
HETATM   13  H   UNL     1      42.029  37.362  46.511  1.00  0.00     0.213 HD
ENDBRANCH   5  12
BRANCH   7  14
HETATM   14  C   UNL     1      43.286  41.289  42.882  1.00  0.00     0.170 C 
BRANCH  14  15
HETATM   15  O   UNL     1      44.347  42.218  42.660  1.00  0.00    -0.380 OA
HETATM   16  H   UNL     1      45.105  41.883  43.176  1.00  0.00     0.211 HD
ENDBRANCH  14  15
ENDBRANCH   7  14
ENDBRANCH   1   2
BRANCH   1  17
HETATM   17  C   UNL     1      46.284  39.147  41.332  1.00  0.00     0.266 C 
HETATM   18  O   UNL     1      47.564  38.581  41.588  1.00  0.00    -0.326 OA
HETATM   19  C   UNL     1      48.101  37.911  40.424  1.00  0.00     0.176 C 
HETATM   20  C   UNL     1      48.385  38.959  39.338  1.00  0.00     0.170 C 
HETATM   21  C   UNL     1      47.071  39.697  39.010  1.00  0.00     0.172 C 
HETATM   22  C   UNL     1      46.406  40.259  40.272  1.00  0.00     0.197 C 
BRANCH  19  23
HETATM   23  C   UNL     1      49.360  37.163  40.870  1.00  0.00     0.170 C 
BRANCH  23  24
HETATM   24  O   UNL     1      48.997  35.856  41.321  1.00  0.00    -0.380 OA
HETATM   25  H   UNL     1      48.019  35.816  41.343  1.00  0.00     0.211 HD
ENDBRANCH  23  24
ENDBRANCH  19  23
BRANCH  20  26
HETATM   26  O   UNL     1      49.397  39.867  39.794  1.00  0.00    -0.380 OA
HETATM   27  H   UNL     1      50.156  39.356  40.122  1.00  0.00     0.211 HD
ENDBRANCH  20  26
BRANCH  21  28
HETATM   28  O   UNL     1      47.290  40.751  38.069  1.00  0.00    -0.380 OA
HETATM   29  H   UNL     1      47.884  40.383  37.386  1.00  0.00     0.211 HD
ENDBRANCH  21  28
BRANCH  22  30
HETATM   30  O   UNL     1      45.118  40.787  39.920  1.00  0.00    -0.378 OA
HETATM   31  H   UNL     1      44.936  40.475  39.013  1.00  0.00     0.211 HD
ENDBRANCH  22  30
ENDBRANCH   1  17
TORSDOF 12
ENDMDL
MODEL 10
REMARK VINA RESULT:    -4.763     21.210     23.676
REMARK INTER + INTRA:          -8.265
REMARK INTER:                  -6.957
REMARK INTRA:                  -1.308
REMARK UNBOUND:                -1.274
REMARK  12 active torsions:
REMARK  status: ('A' for Active; 'I' for Inactive)
REMARK    1  A    between atoms: O_1  and  C_12 
REMARK    2  A    between atoms: O_1  and  C_14 
REMARK    3  A    between atoms: O_4  and  C_13 
REMARK    4  A    between atoms: O_5  and  C_16 
REMARK    5  A    between atoms: O_6  and  C_17 
REMARK    6  A    between atoms: O_7  and  C_18 
REMARK    7  A    between atoms: O_8  and  C_19 
REMARK    8  A    between atoms: O_9  and  C_21 
REMARK    9  A    between atoms: O_10  and  C_22 
REMARK   10  A    between atoms: O_11  and  C_23 
REMARK   11  A    between atoms: C_15  and  C_22 
REMARK   12  A    between atoms: C_20  and  C_23 
ROOT
HETATM    1  O   UNL     1      37.789  61.453  41.294  1.00  0.00    -0.326 OA
ENDROOT
BRANCH   1   2
HETATM    2  C   UNL     1      37.529  60.376  42.218  1.00  0.00     0.177 C 
HETATM    3  C   UNL     1      36.205  59.668  41.859  1.00  0.00     0.172 C 
HETATM    4  C   UNL     1      36.047  58.341  42.610  1.00  0.00     0.197 C 
HETATM    5  C   UNL     1      37.324  57.496  42.502  1.00  0.00     0.263 C 
HETATM    6  O   UNL     1      38.462  58.219  42.939  1.00  0.00    -0.327 OA
HETATM    7  C   UNL     1      38.695  59.377  42.120  1.00  0.00     0.177 C 
BRANCH   3   8
HETATM    8  O   UNL     1      35.093  60.520  42.191  1.00  0.00    -0.380 OA
HETATM    9  H   UNL     1      35.475  61.255  42.712  1.00  0.00     0.211 HD
ENDBRANCH   3   8
BRANCH   4  10
HETATM   10  O   UNL     1      34.941  57.594  42.072  1.00  0.00    -0.378 OA
HETATM   11  H   UNL     1      34.640  57.020  42.802  1.00  0.00     0.211 HD
ENDBRANCH   4  10
BRANCH   5  12
HETATM   12  O   UNL     1      37.175  56.358  43.342  1.00  0.00    -0.359 OA
HETATM   13  H   UNL     1      37.536  56.626  44.203  1.00  0.00     0.213 HD
ENDBRANCH   5  12
BRANCH   7  14
HETATM   14  C   UNL     1      40.007  60.010  42.600  1.00  0.00     0.170 C 
BRANCH  14  15
HETATM   15  O   UNL     1      39.776  60.733  43.808  1.00  0.00    -0.380 OA
HETATM   16  H   UNL     1      39.881  61.676  43.577  1.00  0.00     0.211 HD
ENDBRANCH  14  15
ENDBRANCH   7  14
ENDBRANCH   1   2
BRANCH   1  17
HETATM   17  C   UNL     1      37.728  62.756  41.888  1.00  0.00     0.266 C 
HETATM   18  O   UNL     1      37.875  62.643  43.299  1.00  0.00    -0.326 OA
HETATM   19  C   UNL     1      37.888  63.936  43.946  1.00  0.00     0.176 C 
HETATM   20  C   UNL     1      36.505  64.584  43.782  1.00  0.00     0.170 C 
HETATM   21  C   UNL     1      36.194  64.708  42.277  1.00  0.00     0.172 C 
HETATM   22  C   UNL     1      36.353  63.365  41.553  1.00  0.00     0.197 C 
BRANCH  19  23
HETATM   23  C   UNL     1      38.266  63.709  45.411  1.00  0.00     0.170 C 
BRANCH  23  24
HETATM   24  O   UNL     1      38.211  62.310  45.701  1.00  0.00    -0.380 OA
HETATM   25  H   UNL     1      38.546  62.188  46.614  1.00  0.00     0.211 HD
ENDBRANCH  23  24
ENDBRANCH  19  23
BRANCH  20  26
HETATM   26  O   UNL     1      35.517  63.794  44.459  1.00  0.00    -0.380 OA
HETATM   27  H   UNL     1      35.061  63.233  43.810  1.00  0.00     0.211 HD
ENDBRANCH  20  26
BRANCH  21  28
HETATM   28  O   UNL     1      34.877  65.220  42.060  1.00  0.00    -0.380 OA
HETATM   29  H   UNL     1      34.982  66.182  41.926  1.00  0.00     0.211 HD
ENDBRANCH  21  28
BRANCH  22  30
HETATM   30  O   UNL     1      36.210  63.581  40.140  1.00  0.00    -0.378 OA
HETATM   31  H   UNL     1      35.279  63.375  39.928  1.00  0.00     0.211 HD
ENDBRANCH  22  30
ENDBRANCH   1  17
TORSDOF 12
ENDMDL
