MODEL 1
REMARK VINA RESULT:    -6.246      0.000      0.000
REMARK INTER + INTRA:         -10.585
REMARK INTER:                  -9.166
REMARK INTRA:                  -1.419
REMARK UNBOUND:                -1.419
REMARK  12 active torsions:
REMARK  status: ('A' for Active; 'I' for Inactive)
REMARK    1  A    between atoms: O_1  and  C_12 
REMARK    2  A    between atoms: O_1  and  C_14 
REMARK    3  A    between atoms: O_4  and  C_13 
REMARK    4  A    between atoms: O_5  and  C_16 
REMARK    5  A    between atoms: O_6  and  C_17 
REMARK    6  A    between atoms: O_7  and  C_18 
REMARK    7  A    between atoms: O_8  and  C_19 
REMARK    8  A    between atoms: O_9  and  C_21 
REMARK    9  A    between atoms: O_10  and  C_22 
REMARK   10  A    between atoms: O_11  and  C_23 
REMARK   11  A    between atoms: C_15  and  C_22 
REMARK   12  A    between atoms: C_20  and  C_23 
ROOT
HETATM    1  O   UNL     1      42.484  38.236  45.213  1.00  0.00    -0.326 OA
ENDROOT
BRANCH   1   2
HETATM    2  C   UNL     1      42.916  39.587  44.951  1.00  0.00     0.177 C 
HETATM    3  C   UNL     1      44.320  39.587  44.309  1.00  0.00     0.172 C 
HETATM    4  C   UNL     1      44.684  40.962  43.734  1.00  0.00     0.197 C 
HETATM    5  C   UNL     1      43.538  41.514  42.873  1.00  0.00     0.263 C 
HETATM    6  O   UNL     1      42.319  41.548  43.595  1.00  0.00    -0.327 OA
HETATM    7  C   UNL     1      41.903  40.230  43.987  1.00  0.00     0.177 C 
BRANCH   3   8
HETATM    8  O   UNL     1      45.306  39.225  45.293  1.00  0.00    -0.380 OA
HETATM    9  H   UNL     1      44.857  39.321  46.158  1.00  0.00     0.211 HD
ENDBRANCH   3   8
BRANCH   4  10
HETATM   10  O   UNL     1      45.872  40.865  42.930  1.00  0.00    -0.378 OA
HETATM   11  H   UNL     1      45.556  40.836  42.006  1.00  0.00     0.211 HD
ENDBRANCH   4  10
BRANCH   5  12
HETATM   12  O   UNL     1      43.868  42.847  42.501  1.00  0.00    -0.359 OA
HETATM   13  H   UNL     1      43.048  43.355  42.615  1.00  0.00     0.213 HD
ENDBRANCH   5  12
BRANCH   7  14
HETATM   14  C   UNL     1      40.526  40.369  44.645  1.00  0.00     0.170 C 
BRANCH  14  15
HETATM   15  O   UNL     1      40.685  40.705  46.023  1.00  0.00    -0.380 OA
HETATM   16  H   UNL     1      40.047  40.147  46.508  1.00  0.00     0.211 HD
ENDBRANCH  14  15
ENDBRANCH   7  14
ENDBRANCH   1   2
BRANCH   1  17
HETATM   17  C   UNL     1      42.428  37.904  46.607  1.00  0.00     0.266 C 
HETATM   18  O   UNL     1      42.781  39.044  47.382  1.00  0.00    -0.326 OA
HETATM   19  C   UNL     1      42.677  38.785  48.801  1.00  0.00     0.176 C 
HETATM   20  C   UNL     1      43.737  37.745  49.192  1.00  0.00     0.170 C 
HETATM   21  C   UNL     1      43.500  36.465  48.365  1.00  0.00     0.172 C 
HETATM   22  C   UNL     1      43.433  36.765  46.863  1.00  0.00     0.197 C 
BRANCH  19  23
HETATM   23  C   UNL     1      42.864  40.122  49.523  1.00  0.00     0.170 C 
BRANCH  23  24
HETATM   24  O   UNL     1      43.345  39.879  50.847  1.00  0.00    -0.380 OA
HETATM   25  H   UNL     1      42.583  39.572  51.382  1.00  0.00     0.211 HD
ENDBRANCH  23  24
ENDBRANCH  19  23
BRANCH  20  26
HETATM   26  O   UNL     1      45.048  38.281  48.966  1.00  0.00    -0.380 OA
HETATM   27  H   UNL     1      45.053  38.757  48.119  1.00  0.00     0.211 HD
ENDBRANCH  20  26
BRANCH  21  28
HETATM   28  O   UNL     1      44.514  35.489  48.618  1.00  0.00    -0.380 OA
HETATM   29  H   UNL     1      44.312  35.113  49.497  1.00  0.00     0.211 HD
ENDBRANCH  21  28
BRANCH  22  30
HETATM   30  O   UNL     1      43.052  35.568  46.168  1.00  0.00    -0.378 OA
HETATM   31  H   UNL     1      43.463  34.829  46.657  1.00  0.00     0.211 HD
ENDBRANCH  22  30
ENDBRANCH   1  17
TORSDOF 12
ENDMDL
MODEL 2
REMARK VINA RESULT:    -5.759      1.744      3.555
REMARK INTER + INTRA:          -9.871
REMARK INTER:                  -8.320
REMARK INTRA:                  -1.551
REMARK UNBOUND:                -1.419
REMARK  12 active torsions:
REMARK  status: ('A' for Active; 'I' for Inactive)
REMARK    1  A    between atoms: O_1  and  C_12 
REMARK    2  A    between atoms: O_1  and  C_14 
REMARK    3  A    between atoms: O_4  and  C_13 
REMARK    4  A    between atoms: O_5  and  C_16 
REMARK    5  A    between atoms: O_6  and  C_17 
REMARK    6  A    between atoms: O_7  and  C_18 
REMARK    7  A    between atoms: O_8  and  C_19 
REMARK    8  A    between atoms: O_9  and  C_21 
REMARK    9  A    between atoms: O_10  and  C_22 
REMARK   10  A    between atoms: O_11  and  C_23 
REMARK   11  A    between atoms: C_15  and  C_22 
REMARK   12  A    between atoms: C_20  and  C_23 
ROOT
HETATM    1  O   UNL     1      42.665  38.817  44.673  1.00  0.00    -0.326 OA
ENDROOT
BRANCH   1   2
HETATM    2  C   UNL     1      43.211  39.327  43.439  1.00  0.00     0.177 C 
HETATM    3  C   UNL     1      43.246  40.870  43.463  1.00  0.00     0.172 C 
HETATM    4  C   UNL     1      44.094  41.438  42.319  1.00  0.00     0.197 C 
HETATM    5  C   UNL     1      45.452  40.725  42.238  1.00  0.00     0.263 C 
HETATM    6  O   UNL     1      45.293  39.321  42.132  1.00  0.00    -0.327 OA
HETATM    7  C   UNL     1      44.640  38.776  43.290  1.00  0.00     0.177 C 
BRANCH   3   8
HETATM    8  O   UNL     1      41.909  41.389  43.346  1.00  0.00    -0.380 OA
HETATM    9  H   UNL     1      41.963  42.097  42.672  1.00  0.00     0.211 HD
ENDBRANCH   3   8
BRANCH   4  10
HETATM   10  O   UNL     1      44.313  42.846  42.515  1.00  0.00    -0.378 OA
HETATM   11  H   UNL     1      43.539  43.285  42.114  1.00  0.00     0.211 HD
ENDBRANCH   4  10
BRANCH   5  12
HETATM   12  O   UNL     1      46.124  41.182  41.071  1.00  0.00    -0.359 OA
HETATM   13  H   UNL     1      46.231  42.139  41.196  1.00  0.00     0.213 HD
ENDBRANCH   5  12
BRANCH   7  14
HETATM   14  C   UNL     1      44.631  37.252  43.128  1.00  0.00     0.170 C 
BRANCH  14  15
HETATM   15  O   UNL     1      44.870  36.634  44.392  1.00  0.00    -0.380 OA
HETATM   16  H   UNL     1      44.281  37.089  45.024  1.00  0.00     0.211 HD
ENDBRANCH  14  15
ENDBRANCH   7  14
ENDBRANCH   1   2
BRANCH   1  17
HETATM   17  C   UNL     1      43.196  39.448  45.846  1.00  0.00     0.266 C 
HETATM   18  O   UNL     1      44.052  38.539  46.529  1.00  0.00    -0.326 OA
HETATM   19  C   UNL     1      44.669  39.146  47.687  1.00  0.00     0.176 C 
HETATM   20  C   UNL     1      43.578  39.456  48.723  1.00  0.00     0.170 C 
HETATM   21  C   UNL     1      42.539  40.396  48.079  1.00  0.00     0.172 C 
HETATM   22  C   UNL     1      42.011  39.834  46.753  1.00  0.00     0.197 C 
BRANCH  19  23
HETATM   23  C   UNL     1      45.720  38.164  48.210  1.00  0.00     0.170 C 
BRANCH  23  24
HETATM   24  O   UNL     1      45.240  36.827  48.047  1.00  0.00    -0.380 OA
HETATM   25  H   UNL     1      44.786  36.785  47.180  1.00  0.00     0.211 HD
ENDBRANCH  23  24
ENDBRANCH  19  23
BRANCH  20  26
HETATM   26  O   UNL     1      42.974  38.234  49.170  1.00  0.00    -0.380 OA
HETATM   27  H   UNL     1      42.542  38.389  50.026  1.00  0.00     0.211 HD
ENDBRANCH  20  26
BRANCH  21  28
HETATM   28  O   UNL     1      41.447  40.647  48.966  1.00  0.00    -0.380 OA
HETATM   29  H   UNL     1      40.638  40.583  48.421  1.00  0.00     0.211 HD
ENDBRANCH  21  28
BRANCH  22  30
HETATM   30  O   UNL     1      41.178  40.823  46.130  1.00  0.00    -0.378 OA
HETATM   31  H   UNL     1      41.196  40.628  45.173  1.00  0.00     0.211 HD
ENDBRANCH  22  30
ENDBRANCH   1  17
TORSDOF 12
ENDMDL
MODEL 3
REMARK VINA RESULT:    -5.492      2.041      5.993
REMARK INTER + INTRA:          -9.479
REMARK INTER:                  -8.165
REMARK INTRA:                  -1.314
REMARK UNBOUND:                -1.419
REMARK  12 active torsions:
REMARK  status: ('A' for Active; 'I' for Inactive)
REMARK    1  A    between atoms: O_1  and  C_12 
REMARK    2  A    between atoms: O_1  and  C_14 
REMARK    3  A    between atoms: O_4  and  C_13 
REMARK    4  A    between atoms: O_5  and  C_16 
REMARK    5  A    between atoms: O_6  and  C_17 
REMARK    6  A    between atoms: O_7  and  C_18 
REMARK    7  A    between atoms: O_8  and  C_19 
REMARK    8  A    between atoms: O_9  and  C_21 
REMARK    9  A    between atoms: O_10  and  C_22 
REMARK   10  A    between atoms: O_11  and  C_23 
REMARK   11  A    between atoms: C_15  and  C_22 
REMARK   12  A    between atoms: C_20  and  C_23 
ROOT
HETATM    1  O   UNL     1      42.868  40.600  44.687  1.00  0.00    -0.326 OA
ENDROOT
BRANCH   1   2
HETATM    2  C   UNL     1      42.757  39.529  45.646  1.00  0.00     0.177 C 
HETATM    3  C   UNL     1      43.835  39.674  46.742  1.00  0.00     0.172 C 
HETATM    4  C   UNL     1      43.562  38.751  47.936  1.00  0.00     0.197 C 
HETATM    5  C   UNL     1      42.101  38.868  48.394  1.00  0.00     0.263 C 
HETATM    6  O   UNL     1      41.202  38.630  47.325  1.00  0.00    -0.327 OA
HETATM    7  C   UNL     1      41.357  39.605  46.281  1.00  0.00     0.177 C 
BRANCH   3   8
HETATM    8  O   UNL     1      45.128  39.352  46.198  1.00  0.00    -0.380 OA
HETATM    9  H   UNL     1      45.595  38.865  46.907  1.00  0.00     0.211 HD
ENDBRANCH   3   8
BRANCH   4  10
HETATM   10  O   UNL     1      44.428  39.089  49.033  1.00  0.00    -0.378 OA
HETATM   11  H   UNL     1      44.132  39.970  49.332  1.00  0.00     0.211 HD
ENDBRANCH   4  10
BRANCH   5  12
HETATM   12  O   UNL     1      41.870  37.882  49.392  1.00  0.00    -0.359 OA
HETATM   13  H   UNL     1      41.376  38.338  50.093  1.00  0.00     0.213 HD
ENDBRANCH   5  12
BRANCH   7  14
HETATM   14  C   UNL     1      40.264  39.330  45.242  1.00  0.00     0.170 C 
BRANCH  14  15
HETATM   15  O   UNL     1      39.921  40.544  44.575  1.00  0.00    -0.380 OA
HETATM   16  H   UNL     1      38.949  40.617  44.639  1.00  0.00     0.211 HD
ENDBRANCH  14  15
ENDBRANCH   7  14
ENDBRANCH   1   2
BRANCH   1  17
HETATM   17  C   UNL     1      43.366  40.185  43.408  1.00  0.00     0.266 C 
HETATM   18  O   UNL     1      43.779  38.825  43.476  1.00  0.00    -0.326 OA
HETATM   19  C   UNL     1      44.229  38.333  42.193  1.00  0.00     0.176 C 
HETATM   20  C   UNL     1      45.514  39.077  41.802  1.00  0.00     0.170 C 
HETATM   21  C   UNL     1      45.213  40.589  41.753  1.00  0.00     0.172 C 
HETATM   22  C   UNL     1      44.569  41.081  43.055  1.00  0.00     0.197 C 
BRANCH  19  23
HETATM   23  C   UNL     1      44.438  36.823  42.333  1.00  0.00     0.170 C 
BRANCH  23  24
HETATM   24  O   UNL     1      45.438  36.397  41.404  1.00  0.00    -0.380 OA
HETATM   25  H   UNL     1      46.273  36.849  41.648  1.00  0.00     0.211 HD
ENDBRANCH  23  24
ENDBRANCH  19  23
BRANCH  20  26
HETATM   26  O   UNL     1      46.553  38.779  42.745  1.00  0.00    -0.380 OA
HETATM   27  H   UNL     1      46.198  38.189  43.430  1.00  0.00     0.211 HD
ENDBRANCH  20  26
BRANCH  21  28
HETATM   28  O   UNL     1      46.396  41.345  41.483  1.00  0.00    -0.380 OA
HETATM   29  H   UNL     1      46.864  41.425  42.337  1.00  0.00     0.211 HD
ENDBRANCH  21  28
BRANCH  22  30
HETATM   30  O   UNL     1      44.168  42.449  42.884  1.00  0.00    -0.378 OA
HETATM   31  H   UNL     1      43.388  42.431  42.297  1.00  0.00     0.211 HD
ENDBRANCH  22  30
ENDBRANCH   1  17
TORSDOF 12
ENDMDL
MODEL 4
REMARK VINA RESULT:    -5.460      1.728      2.285
REMARK INTER + INTRA:          -9.431
REMARK INTER:                  -7.946
REMARK INTRA:                  -1.486
REMARK UNBOUND:                -1.419
REMARK  12 active torsions:
REMARK  status: ('A' for Active; 'I' for Inactive)
REMARK    1  A    between atoms: O_1  and  C_12 
REMARK    2  A    between atoms: O_1  and  C_14 
REMARK    3  A    between atoms: O_4  and  C_13 
REMARK    4  A    between atoms: O_5  and  C_16 
REMARK    5  A    between atoms: O_6  and  C_17 
REMARK    6  A    between atoms: O_7  and  C_18 
REMARK    7  A    between atoms: O_8  and  C_19 
REMARK    8  A    between atoms: O_9  and  C_21 
REMARK    9  A    between atoms: O_10  and  C_22 
REMARK   10  A    between atoms: O_11  and  C_23 
REMARK   11  A    between atoms: C_15  and  C_22 
REMARK   12  A    between atoms: C_20  and  C_23 
ROOT
HETATM    1  O   UNL     1      42.256  38.179  44.916  1.00  0.00    -0.326 OA
ENDROOT
BRANCH   1   2
HETATM    2  C   UNL     1      42.820  39.489  44.701  1.00  0.00     0.177 C 
HETATM    3  C   UNL     1      44.089  39.391  43.827  1.00  0.00     0.172 C 
HETATM    4  C   UNL     1      44.539  40.766  43.318  1.00  0.00     0.197 C 
HETATM    5  C   UNL     1      43.355  41.540  42.720  1.00  0.00     0.263 C 
HETATM    6  O   UNL     1      42.284  41.642  43.642  1.00  0.00    -0.327 OA
HETATM    7  C   UNL     1      41.762  40.347  43.986  1.00  0.00     0.177 C 
BRANCH   3   8
HETATM    8  O   UNL     1      45.162  38.810  44.591  1.00  0.00    -0.380 OA
HETATM    9  H   UNL     1      45.979  39.230  44.253  1.00  0.00     0.211 HD
ENDBRANCH   3   8
BRANCH   4  10
HETATM   10  O   UNL     1      45.558  40.615  42.315  1.00  0.00    -0.378 OA
HETATM   11  H   UNL     1      46.405  40.685  42.797  1.00  0.00     0.211 HD
ENDBRANCH   4  10
BRANCH   5  12
HETATM   12  O   UNL     1      43.798  42.857  42.413  1.00  0.00    -0.359 OA
HETATM   13  H   UNL     1      44.747  42.862  42.619  1.00  0.00     0.213 HD
ENDBRANCH   5  12
BRANCH   7  14
HETATM   14  C   UNL     1      40.540  40.578  44.882  1.00  0.00     0.170 C 
BRANCH  14  15
HETATM   15  O   UNL     1      39.648  39.469  44.770  1.00  0.00    -0.380 OA
HETATM   16  H   UNL     1      39.029  39.698  44.050  1.00  0.00     0.211 HD
ENDBRANCH  14  15
ENDBRANCH   7  14
ENDBRANCH   1   2
BRANCH   1  17
HETATM   17  C   UNL     1      42.324  37.734  46.278  1.00  0.00     0.266 C 
HETATM   18  O   UNL     1      43.652  37.321  46.578  1.00  0.00    -0.326 OA
HETATM   19  C   UNL     1      43.794  36.924  47.961  1.00  0.00     0.176 C 
HETATM   20  C   UNL     1      42.962  35.655  48.199  1.00  0.00     0.170 C 
HETATM   21  C   UNL     1      41.492  35.956  47.845  1.00  0.00     0.172 C 
HETATM   22  C   UNL     1      41.357  36.545  46.436  1.00  0.00     0.197 C 
BRANCH  19  23
HETATM   23  C   UNL     1      45.287  36.712  48.223  1.00  0.00     0.170 C 
BRANCH  23  24
HETATM   24  O   UNL     1      45.450  35.744  49.263  1.00  0.00    -0.380 OA
HETATM   25  H   UNL     1      46.118  36.097  49.887  1.00  0.00     0.211 HD
ENDBRANCH  23  24
ENDBRANCH  19  23
BRANCH  20  26
HETATM   26  O   UNL     1      43.483  34.579  47.406  1.00  0.00    -0.380 OA
HETATM   27  H   UNL     1      42.759  34.184  46.893  1.00  0.00     0.211 HD
ENDBRANCH  20  26
BRANCH  21  28
HETATM   28  O   UNL     1      40.681  34.784  47.958  1.00  0.00    -0.380 OA
HETATM   29  H   UNL     1      40.544  34.462  47.046  1.00  0.00     0.211 HD
ENDBRANCH  21  28
BRANCH  22  30
HETATM   30  O   UNL     1      39.995  36.951  46.233  1.00  0.00    -0.378 OA
HETATM   31  H   UNL     1      39.562  36.217  45.755  1.00  0.00     0.211 HD
ENDBRANCH  22  30
ENDBRANCH   1  17
TORSDOF 12
ENDMDL
MODEL 5
REMARK VINA RESULT:    -5.382      2.597      4.171
REMARK INTER + INTRA:          -9.317
REMARK INTER:                  -7.866
REMARK INTRA:                  -1.451
REMARK UNBOUND:                -1.419
REMARK  12 active torsions:
REMARK  status: ('A' for Active; 'I' for Inactive)
REMARK    1  A    between atoms: O_1  and  C_12 
REMARK    2  A    between atoms: O_1  and  C_14 
REMARK    3  A    between atoms: O_4  and  C_13 
REMARK    4  A    between atoms: O_5  and  C_16 
REMARK    5  A    between atoms: O_6  and  C_17 
REMARK    6  A    between atoms: O_7  and  C_18 
REMARK    7  A    between atoms: O_8  and  C_19 
REMARK    8  A    between atoms: O_9  and  C_21 
REMARK    9  A    between atoms: O_10  and  C_22 
REMARK   10  A    between atoms: O_11  and  C_23 
REMARK   11  A    between atoms: C_15  and  C_22 
REMARK   12  A    between atoms: C_20  and  C_23 
ROOT
HETATM    1  O   UNL     1      43.429  39.335  42.748  1.00  0.00    -0.326 OA
ENDROOT
BRANCH   1   2
HETATM    2  C   UNL     1      44.475  39.905  41.934  1.00  0.00     0.177 C 
HETATM    3  C   UNL     1      45.593  38.869  41.691  1.00  0.00     0.172 C 
HETATM    4  C   UNL     1      46.559  39.321  40.589  1.00  0.00     0.197 C 
HETATM    5  C   UNL     1      45.789  39.800  39.350  1.00  0.00     0.263 C 
HETATM    6  O   UNL     1      44.853  40.811  39.681  1.00  0.00    -0.327 OA
HETATM    7  C   UNL     1      43.853  40.325  40.591  1.00  0.00     0.177 C 
BRANCH   3   8
HETATM    8  O   UNL     1      46.341  38.666  42.904  1.00  0.00    -0.380 OA
HETATM    9  H   UNL     1      45.860  39.169  43.593  1.00  0.00     0.211 HD
ENDBRANCH   3   8
BRANCH   4  10
HETATM   10  O   UNL     1      47.428  38.238  40.215  1.00  0.00    -0.378 OA
HETATM   11  H   UNL     1      46.898  37.679  39.615  1.00  0.00     0.211 HD
ENDBRANCH   4  10
BRANCH   5  12
HETATM   12  O   UNL     1      46.726  40.349  38.432  1.00  0.00    -0.359 OA
HETATM   13  H   UNL     1      47.401  39.661  38.312  1.00  0.00     0.213 HD
ENDBRANCH   5  12
BRANCH   7  14
HETATM   14  C   UNL     1      42.832  41.452  40.782  1.00  0.00     0.170 C 
BRANCH  14  15
HETATM   15  O   UNL     1      41.520  40.898  40.877  1.00  0.00    -0.380 OA
HETATM   16  H   UNL     1      40.922  41.657  41.020  1.00  0.00     0.211 HD
ENDBRANCH  14  15
ENDBRANCH   7  14
ENDBRANCH   1   2
BRANCH   1  17
HETATM   17  C   UNL     1      43.349  39.893  44.066  1.00  0.00     0.266 C 
HETATM   18  O   UNL     1      44.112  39.099  44.967  1.00  0.00    -0.326 OA
HETATM   19  C   UNL     1      44.121  39.655  46.302  1.00  0.00     0.176 C 
HETATM   20  C   UNL     1      42.699  39.580  46.877  1.00  0.00     0.170 C 
HETATM   21  C   UNL     1      41.749  40.361  45.946  1.00  0.00     0.172 C 
HETATM   22  C   UNL     1      41.868  39.890  44.491  1.00  0.00     0.197 C 
BRANCH  19  23
HETATM   23  C   UNL     1      45.135  38.854  47.122  1.00  0.00     0.170 C 
BRANCH  23  24
HETATM   24  O   UNL     1      44.799  38.947  48.509  1.00  0.00    -0.380 OA
HETATM   25  H   UNL     1      45.063  39.840  48.813  1.00  0.00     0.211 HD
ENDBRANCH  23  24
ENDBRANCH  19  23
BRANCH  20  26
HETATM   26  O   UNL     1      42.299  38.209  47.004  1.00  0.00    -0.380 OA
HETATM   27  H   UNL     1      42.167  37.834  46.118  1.00  0.00     0.211 HD
ENDBRANCH  20  26
BRANCH  21  28
HETATM   28  O   UNL     1      40.391  40.251  46.380  1.00  0.00    -0.380 OA
HETATM   29  H   UNL     1      40.046  41.164  46.418  1.00  0.00     0.211 HD
ENDBRANCH  21  28
BRANCH  22  30
HETATM   30  O   UNL     1      41.085  40.759  43.659  1.00  0.00    -0.378 OA
HETATM   31  H   UNL     1      40.151  40.536  43.837  1.00  0.00     0.211 HD
ENDBRANCH  22  30
ENDBRANCH   1  17
TORSDOF 12
ENDMDL
MODEL 6
REMARK VINA RESULT:    -5.210      2.230      3.055
REMARK INTER + INTRA:          -9.065
REMARK INTER:                  -7.623
REMARK INTRA:                  -1.442
REMARK UNBOUND:                -1.419
REMARK  12 active torsions:
REMARK  status: ('A' for Active; 'I' for Inactive)
REMARK    1  A    between atoms: O_1  and  C_12 
REMARK    2  A    between atoms: O_1  and  C_14 
REMARK    3  A    between atoms: O_4  and  C_13 
REMARK    4  A    between atoms: O_5  and  C_16 
REMARK    5  A    between atoms: O_6  and  C_17 
REMARK    6  A    between atoms: O_7  and  C_18 
REMARK    7  A    between atoms: O_8  and  C_19 
REMARK    8  A    between atoms: O_9  and  C_21 
REMARK    9  A    between atoms: O_10  and  C_22 
REMARK   10  A    between atoms: O_11  and  C_23 
REMARK   11  A    between atoms: C_15  and  C_22 
REMARK   12  A    between atoms: C_20  and  C_23 
ROOT
HETATM    1  O   UNL     1      44.231  37.993  44.483  1.00  0.00    -0.326 OA
ENDROOT
BRANCH   1   2
HETATM    2  C   UNL     1      43.728  38.453  43.211  1.00  0.00     0.177 C 
HETATM    3  C   UNL     1      43.935  39.976  43.070  1.00  0.00     0.172 C 
HETATM    4  C   UNL     1      43.706  40.451  41.630  1.00  0.00     0.197 C 
HETATM    5  C   UNL     1      44.465  39.563  40.634  1.00  0.00     0.263 C 
HETATM    6  O   UNL     1      44.131  38.196  40.799  1.00  0.00    -0.327 OA
HETATM    7  C   UNL     1      44.503  37.718  42.103  1.00  0.00     0.177 C 
BRANCH   3   8
HETATM    8  O   UNL     1      43.021  40.673  43.936  1.00  0.00    -0.380 OA
HETATM    9  H   UNL     1      42.155  40.237  43.805  1.00  0.00     0.211 HD
ENDBRANCH   3   8
BRANCH   4  10
HETATM   10  O   UNL     1      44.148  41.812  41.480  1.00  0.00    -0.378 OA
HETATM   11  H   UNL     1      44.073  42.206  42.370  1.00  0.00     0.211 HD
ENDBRANCH   4  10
BRANCH   5  12
HETATM   12  O   UNL     1      44.091  39.953  39.318  1.00  0.00    -0.359 OA
HETATM   13  H   UNL     1      43.235  40.401  39.418  1.00  0.00     0.213 HD
ENDBRANCH   5  12
BRANCH   7  14
HETATM   14  C   UNL     1      44.212  36.213  42.130  1.00  0.00     0.170 C 
BRANCH  14  15
HETATM   15  O   UNL     1      45.094  35.572  43.051  1.00  0.00    -0.380 OA
HETATM   16  H   UNL     1      45.955  35.510  42.595  1.00  0.00     0.211 HD
ENDBRANCH  14  15
ENDBRANCH   7  14
ENDBRANCH   1   2
BRANCH   1  17
HETATM   17  C   UNL     1      43.219  37.844  45.487  1.00  0.00     0.266 C 
HETATM   18  O   UNL     1      43.291  38.933  46.401  1.00  0.00    -0.326 OA
HETATM   19  C   UNL     1      42.248  38.869  47.400  1.00  0.00     0.176 C 
HETATM   20  C   UNL     1      42.490  37.640  48.289  1.00  0.00     0.170 C 
HETATM   21  C   UNL     1      42.498  36.381  47.399  1.00  0.00     0.172 C 
HETATM   22  C   UNL     1      43.481  36.519  46.230  1.00  0.00     0.197 C 
BRANCH  19  23
HETATM   23  C   UNL     1      42.285  40.183  48.182  1.00  0.00     0.170 C 
BRANCH  23  24
HETATM   24  O   UNL     1      43.646  40.545  48.432  1.00  0.00    -0.380 OA
HETATM   25  H   UNL     1      44.020  39.870  49.035  1.00  0.00     0.211 HD
ENDBRANCH  23  24
ENDBRANCH  19  23
BRANCH  20  26
HETATM   26  O   UNL     1      43.729  37.791  48.996  1.00  0.00    -0.380 OA
HETATM   27  H   UNL     1      43.955  38.735  49.040  1.00  0.00     0.211 HD
ENDBRANCH  20  26
BRANCH  21  28
HETATM   28  O   UNL     1      42.813  35.211  48.158  1.00  0.00    -0.380 OA
HETATM   29  H   UNL     1      43.236  34.591  47.533  1.00  0.00     0.211 HD
ENDBRANCH  21  28
BRANCH  22  30
HETATM   30  O   UNL     1      43.323  35.392  45.356  1.00  0.00    -0.378 OA
HETATM   31  H   UNL     1      42.512  34.933  45.650  1.00  0.00     0.211 HD
ENDBRANCH  22  30
ENDBRANCH   1  17
TORSDOF 12
ENDMDL
MODEL 7
REMARK VINA RESULT:    -5.155      2.273      6.416
REMARK INTER + INTRA:          -8.984
REMARK INTER:                  -7.366
REMARK INTRA:                  -1.618
REMARK UNBOUND:                -1.419
REMARK  12 active torsions:
REMARK  status: ('A' for Active; 'I' for Inactive)
REMARK    1  A    between atoms: O_1  and  C_12 
REMARK    2  A    between atoms: O_1  and  C_14 
REMARK    3  A    between atoms: O_4  and  C_13 
REMARK    4  A    between atoms: O_5  and  C_16 
REMARK    5  A    between atoms: O_6  and  C_17 
REMARK    6  A    between atoms: O_7  and  C_18 
REMARK    7  A    between atoms: O_8  and  C_19 
REMARK    8  A    between atoms: O_9  and  C_21 
REMARK    9  A    between atoms: O_10  and  C_22 
REMARK   10  A    between atoms: O_11  and  C_23 
REMARK   11  A    between atoms: C_15  and  C_22 
REMARK   12  A    between atoms: C_20  and  C_23 
ROOT
HETATM    1  O   UNL     1      44.936  38.207  44.460  1.00  0.00    -0.326 OA
ENDROOT
BRANCH   1   2
HETATM    2  C   UNL     1      44.015  37.617  45.400  1.00  0.00     0.177 C 
HETATM    3  C   UNL     1      43.504  38.683  46.393  1.00  0.00     0.172 C 
HETATM    4  C   UNL     1      42.302  38.179  47.201  1.00  0.00     0.197 C 
HETATM    5  C   UNL     1      41.251  37.545  46.279  1.00  0.00     0.263 C 
HETATM    6  O   UNL     1      41.815  36.522  45.477  1.00  0.00    -0.327 OA
HETATM    7  C   UNL     1      42.832  37.040  44.603  1.00  0.00     0.177 C 
BRANCH   3   8
HETATM    8  O   UNL     1      44.556  39.040  47.308  1.00  0.00    -0.380 OA
HETATM    9  H   UNL     1      45.197  38.301  47.267  1.00  0.00     0.211 HD
ENDBRANCH   3   8
BRANCH   4  10
HETATM   10  O   UNL     1      41.699  39.266  47.924  1.00  0.00    -0.378 OA
HETATM   11  H   UNL     1      42.018  39.172  48.843  1.00  0.00     0.211 HD
ENDBRANCH   4  10
BRANCH   5  12
HETATM   12  O   UNL     1      40.242  36.960  47.094  1.00  0.00    -0.359 OA
HETATM   13  H   UNL     1      40.610  36.110  47.386  1.00  0.00     0.213 HD
ENDBRANCH   5  12
BRANCH   7  14
HETATM   14  C   UNL     1      43.283  35.883  43.703  1.00  0.00     0.170 C 
BRANCH  14  15
HETATM   15  O   UNL     1      43.534  36.373  42.386  1.00  0.00    -0.380 OA
HETATM   16  H   UNL     1      44.473  36.644  42.379  1.00  0.00     0.211 HD
ENDBRANCH  14  15
ENDBRANCH   7  14
ENDBRANCH   1   2
BRANCH   1  17
HETATM   17  C   UNL     1      44.434  39.386  43.817  1.00  0.00     0.266 C 
HETATM   18  O   UNL     1      44.120  39.091  42.461  1.00  0.00    -0.326 OA
HETATM   19  C   UNL     1      43.545  40.230  41.780  1.00  0.00     0.176 C 
HETATM   20  C   UNL     1      44.612  41.329  41.668  1.00  0.00     0.170 C 
HETATM   21  C   UNL     1      45.088  41.700  43.087  1.00  0.00     0.172 C 
HETATM   22  C   UNL     1      45.534  40.463  43.877  1.00  0.00     0.197 C 
BRANCH  19  23
HETATM   23  C   UNL     1      43.051  39.743  40.416  1.00  0.00     0.170 C 
BRANCH  23  24
HETATM   24  O   UNL     1      43.768  38.563  40.047  1.00  0.00    -0.380 OA
HETATM   25  H   UNL     1      44.361  38.802  39.305  1.00  0.00     0.211 HD
ENDBRANCH  23  24
ENDBRANCH  19  23
BRANCH  20  26
HETATM   26  O   UNL     1      45.699  40.867  40.854  1.00  0.00    -0.380 OA
HETATM   27  H   UNL     1      46.499  40.802  41.401  1.00  0.00     0.211 HD
ENDBRANCH  20  26
BRANCH  21  28
HETATM   28  O   UNL     1      46.151  42.655  43.044  1.00  0.00    -0.380 OA
HETATM   29  H   UNL     1      46.835  42.323  43.658  1.00  0.00     0.211 HD
ENDBRANCH  21  28
BRANCH  22  30
HETATM   30  O   UNL     1      45.808  40.853  45.231  1.00  0.00    -0.378 OA
HETATM   31  H   UNL     1      46.730  41.177  45.238  1.00  0.00     0.211 HD
ENDBRANCH  22  30
ENDBRANCH   1  17
TORSDOF 12
ENDMDL
MODEL 8
REMARK VINA RESULT:    -5.109      4.705      6.995
REMARK INTER + INTRA:          -8.917
REMARK INTER:                  -7.412
REMARK INTRA:                  -1.505
REMARK UNBOUND:                -1.419
REMARK  12 active torsions:
REMARK  status: ('A' for Active; 'I' for Inactive)
REMARK    1  A    between atoms: O_1  and  C_12 
REMARK    2  A    between atoms: O_1  and  C_14 
REMARK    3  A    between atoms: O_4  and  C_13 
REMARK    4  A    between atoms: O_5  and  C_16 
REMARK    5  A    between atoms: O_6  and  C_17 
REMARK    6  A    between atoms: O_7  and  C_18 
REMARK    7  A    between atoms: O_8  and  C_19 
REMARK    8  A    between atoms: O_9  and  C_21 
REMARK    9  A    between atoms: O_10  and  C_22 
REMARK   10  A    between atoms: O_11  and  C_23 
REMARK   11  A    between atoms: C_15  and  C_22 
REMARK   12  A    between atoms: C_20  and  C_23 
ROOT
HETATM    1  O   UNL     1      47.250  37.659  41.995  1.00  0.00    -0.326 OA
ENDROOT
BRANCH   1   2
HETATM    2  C   UNL     1      46.336  38.765  41.849  1.00  0.00     0.177 C 
HETATM    3  C   UNL     1      45.524  38.967  43.147  1.00  0.00     0.172 C 
HETATM    4  C   UNL     1      44.776  40.305  43.149  1.00  0.00     0.197 C 
HETATM    5  C   UNL     1      45.710  41.454  42.743  1.00  0.00     0.263 C 
HETATM    6  O   UNL     1      46.333  41.198  41.496  1.00  0.00    -0.327 OA
HETATM    7  C   UNL     1      47.165  40.028  41.554  1.00  0.00     0.177 C 
BRANCH   3   8
HETATM    8  O   UNL     1      44.565  37.903  43.290  1.00  0.00    -0.380 OA
HETATM    9  H   UNL     1      44.329  37.892  44.240  1.00  0.00     0.211 HD
ENDBRANCH   3   8
BRANCH   4  10
HETATM   10  O   UNL     1      44.242  40.573  44.458  1.00  0.00    -0.378 OA
HETATM   11  H   UNL     1      44.923  40.258  45.083  1.00  0.00     0.211 HD
ENDBRANCH   4  10
BRANCH   5  12
HETATM   12  O   UNL     1      44.928  42.634  42.612  1.00  0.00    -0.359 OA
HETATM   13  H   UNL     1      44.538  42.782  43.489  1.00  0.00     0.213 HD
ENDBRANCH   5  12
BRANCH   7  14
HETATM   14  C   UNL     1      47.880  39.916  40.202  1.00  0.00     0.170 C 
BRANCH  14  15
HETATM   15  O   UNL     1      49.123  39.236  40.373  1.00  0.00    -0.380 OA
HETATM   16  H   UNL     1      49.239  39.134  41.338  1.00  0.00     0.211 HD
ENDBRANCH  14  15
ENDBRANCH   7  14
ENDBRANCH   1   2
BRANCH   1  17
HETATM   17  C   UNL     1      46.843  36.474  41.298  1.00  0.00     0.266 C 
HETATM   18  O   UNL     1      45.883  35.770  42.078  1.00  0.00    -0.326 OA
HETATM   19  C   UNL     1      45.386  34.597  41.392  1.00  0.00     0.176 C 
HETATM   20  C   UNL     1      46.535  33.589  41.244  1.00  0.00     0.170 C 
HETATM   21  C   UNL     1      47.681  34.259  40.460  1.00  0.00     0.172 C 
HETATM   22  C   UNL     1      48.092  35.596  41.088  1.00  0.00     0.197 C 
BRANCH  19  23
HETATM   23  C   UNL     1      44.219  34.049  42.215  1.00  0.00     0.170 C 
BRANCH  23  24
HETATM   24  O   UNL     1      43.972  34.919  43.323  1.00  0.00    -0.380 OA
HETATM   25  H   UNL     1      43.173  34.586  43.782  1.00  0.00     0.211 HD
ENDBRANCH  23  24
ENDBRANCH  19  23
BRANCH  20  26
HETATM   26  O   UNL     1      46.969  33.155  42.540  1.00  0.00    -0.380 OA
HETATM   27  H   UNL     1      46.841  32.195  42.612  1.00  0.00     0.211 HD
ENDBRANCH  20  26
BRANCH  21  28
HETATM   28  O   UNL     1      48.819  33.398  40.368  1.00  0.00    -0.380 OA
HETATM   29  H   UNL     1      49.495  33.783  40.960  1.00  0.00     0.211 HD
ENDBRANCH  21  28
BRANCH  22  30
HETATM   30  O   UNL     1      49.042  36.240  40.225  1.00  0.00    -0.378 OA
HETATM   31  H   UNL     1      48.649  36.226  39.331  1.00  0.00     0.211 HD
ENDBRANCH  22  30
ENDBRANCH   1  17
TORSDOF 12
ENDMDL
MODEL 9
REMARK VINA RESULT:    -4.957      2.213      3.593
REMARK INTER + INTRA:          -8.693
REMARK INTER:                  -7.451
REMARK INTRA:                  -1.243
REMARK UNBOUND:                -1.419
REMARK  12 active torsions:
REMARK  status: ('A' for Active; 'I' for Inactive)
REMARK    1  A    between atoms: O_1  and  C_12 
REMARK    2  A    between atoms: O_1  and  C_14 
REMARK    3  A    between atoms: O_4  and  C_13 
REMARK    4  A    between atoms: O_5  and  C_16 
REMARK    5  A    between atoms: O_6  and  C_17 
REMARK    6  A    between atoms: O_7  and  C_18 
REMARK    7  A    between atoms: O_8  and  C_19 
REMARK    8  A    between atoms: O_9  and  C_21 
REMARK    9  A    between atoms: O_10  and  C_22 
REMARK   10  A    between atoms: O_11  and  C_23 
REMARK   11  A    between atoms: C_15  and  C_22 
REMARK   12  A    between atoms: C_20  and  C_23 
ROOT
HETATM    1  O   UNL     1      45.015  37.781  44.727  1.00  0.00    -0.326 OA
ENDROOT
BRANCH   1   2
HETATM    2  C   UNL     1      44.191  38.336  43.681  1.00  0.00     0.177 C 
HETATM    3  C   UNL     1      44.547  39.820  43.446  1.00  0.00     0.172 C 
HETATM    4  C   UNL     1      43.925  40.358  42.152  1.00  0.00     0.197 C 
HETATM    5  C   UNL     1      44.187  39.398  40.981  1.00  0.00     0.263 C 
HETATM    6  O   UNL     1      43.741  38.086  41.277  1.00  0.00    -0.327 OA
HETATM    7  C   UNL     1      44.450  37.530  42.396  1.00  0.00     0.177 C 
BRANCH   3   8
HETATM    8  O   UNL     1      44.072  40.614  44.549  1.00  0.00    -0.380 OA
HETATM    9  H   UNL     1      43.160  40.304  44.719  1.00  0.00     0.211 HD
ENDBRANCH   3   8
BRANCH   4  10
HETATM   10  O   UNL     1      44.476  41.648  41.835  1.00  0.00    -0.378 OA
HETATM   11  H   UNL     1      44.922  41.533  40.975  1.00  0.00     0.211 HD
ENDBRANCH   4  10
BRANCH   5  12
HETATM   12  O   UNL     1      43.458  39.868  39.853  1.00  0.00    -0.359 OA
HETATM   13  H   UNL     1      42.964  40.641  40.171  1.00  0.00     0.213 HD
ENDBRANCH   5  12
BRANCH   7  14
HETATM   14  C   UNL     1      43.981  36.079  42.550  1.00  0.00     0.170 C 
BRANCH  14  15
HETATM   15  O   UNL     1      45.025  35.298  43.132  1.00  0.00    -0.380 OA
HETATM   16  H   UNL     1      44.787  34.366  42.958  1.00  0.00     0.211 HD
ENDBRANCH  14  15
ENDBRANCH   7  14
ENDBRANCH   1   2
BRANCH   1  17
HETATM   17  C   UNL     1      44.315  37.549  45.956  1.00  0.00     0.266 C 
HETATM   18  O   UNL     1      42.937  37.859  45.785  1.00  0.00    -0.326 OA
HETATM   19  C   UNL     1      42.168  37.578  46.977  1.00  0.00     0.176 C 
HETATM   20  C   UNL     1      42.615  38.538  48.090  1.00  0.00     0.170 C 
HETATM   21  C   UNL     1      44.125  38.343  48.332  1.00  0.00     0.172 C 
HETATM   22  C   UNL     1      44.928  38.466  47.031  1.00  0.00     0.197 C 
BRANCH  19  23
HETATM   23  C   UNL     1      40.690  37.739  46.614  1.00  0.00     0.170 C 
BRANCH  23  24
HETATM   24  O   UNL     1      40.502  38.984  45.938  1.00  0.00    -0.380 OA
HETATM   25  H   UNL     1      39.566  39.021  45.650  1.00  0.00     0.211 HD
ENDBRANCH  23  24
ENDBRANCH  19  23
BRANCH  20  26
HETATM   26  O   UNL     1      42.313  39.889  47.714  1.00  0.00    -0.380 OA
HETATM   27  H   UNL     1      42.929  40.168  47.015  1.00  0.00     0.211 HD
ENDBRANCH  20  26
BRANCH  21  28
HETATM   28  O   UNL     1      44.620  39.276  49.295  1.00  0.00    -0.380 OA
HETATM   29  H   UNL     1      45.562  39.417  49.074  1.00  0.00     0.211 HD
ENDBRANCH  21  28
BRANCH  22  30
HETATM   30  O   UNL     1      46.295  38.115  47.297  1.00  0.00    -0.378 OA
HETATM   31  H   UNL     1      46.306  37.726  48.193  1.00  0.00     0.211 HD
ENDBRANCH  22  30
ENDBRANCH   1  17
TORSDOF 12
ENDMDL
MODEL 10
REMARK VINA RESULT:    -4.862      2.150      6.550
REMARK INTER + INTRA:          -8.554
REMARK INTER:                  -7.238
REMARK INTRA:                  -1.317
REMARK UNBOUND:                -1.419
REMARK  12 active torsions:
REMARK  status: ('A' for Active; 'I' for Inactive)
REMARK    1  A    between atoms: O_1  and  C_12 
REMARK    2  A    between atoms: O_1  and  C_14 
REMARK    3  A    between atoms: O_4  and  C_13 
REMARK    4  A    between atoms: O_5  and  C_16 
REMARK    5  A    between atoms: O_6  and  C_17 
REMARK    6  A    between atoms: O_7  and  C_18 
REMARK    7  A    between atoms: O_8  and  C_19 
REMARK    8  A    between atoms: O_9  and  C_21 
REMARK    9  A    between atoms: O_10  and  C_22 
REMARK   10  A    between atoms: O_11  and  C_23 
REMARK   11  A    between atoms: C_15  and  C_22 
REMARK   12  A    between atoms: C_20  and  C_23 
ROOT
HETATM    1  O   UNL     1      43.624  39.648  45.935  1.00  0.00    -0.326 OA
ENDROOT
BRANCH   1   2
HETATM    2  C   UNL     1      42.950  38.846  46.926  1.00  0.00     0.177 C 
HETATM    3  C   UNL     1      41.528  38.483  46.446  1.00  0.00     0.172 C 
HETATM    4  C   UNL     1      40.897  37.386  47.313  1.00  0.00     0.197 C 
HETATM    5  C   UNL     1      41.871  36.216  47.508  1.00  0.00     0.263 C 
HETATM    6  O   UNL     1      43.111  36.657  48.034  1.00  0.00    -0.327 OA
HETATM    7  C   UNL     1      43.772  37.561  47.133  1.00  0.00     0.177 C 
BRANCH   3   8
HETATM    8  O   UNL     1      40.686  39.649  46.494  1.00  0.00    -0.380 OA
HETATM    9  H   UNL     1      40.917  40.169  45.698  1.00  0.00     0.211 HD
ENDBRANCH   3   8
BRANCH   4  10
HETATM   10  O   UNL     1      39.692  36.898  46.696  1.00  0.00    -0.378 OA
HETATM   11  H   UNL     1      39.657  35.948  46.918  1.00  0.00     0.211 HD
ENDBRANCH   4  10
BRANCH   5  12
HETATM   12  O   UNL     1      41.294  35.311  48.441  1.00  0.00    -0.359 OA
HETATM   13  H   UNL     1      40.589  35.813  48.883  1.00  0.00     0.213 HD
ENDBRANCH   5  12
BRANCH   7  14
HETATM   14  C   UNL     1      45.145  37.875  47.738  1.00  0.00     0.170 C 
BRANCH  14  15
HETATM   15  O   UNL     1      46.023  38.343  46.714  1.00  0.00    -0.380 OA
HETATM   16  H   UNL     1      46.346  37.543  46.256  1.00  0.00     0.211 HD
ENDBRANCH  14  15
ENDBRANCH   7  14
ENDBRANCH   1   2
BRANCH   1  17
HETATM   17  C   UNL     1      43.363  39.245  44.584  1.00  0.00     0.266 C 
HETATM   18  O   UNL     1      44.507  38.586  44.055  1.00  0.00    -0.326 OA
HETATM   19  C   UNL     1      44.276  38.097  42.713  1.00  0.00     0.176 C 
HETATM   20  C   UNL     1      44.089  39.299  41.775  1.00  0.00     0.170 C 
HETATM   21  C   UNL     1      42.901  40.141  42.283  1.00  0.00     0.172 C 
HETATM   22  C   UNL     1      43.061  40.513  43.762  1.00  0.00     0.197 C 
BRANCH  19  23
HETATM   23  C   UNL     1      45.477  37.229  42.332  1.00  0.00     0.170 C 
BRANCH  23  24
HETATM   24  O   UNL     1      45.075  36.276  41.344  1.00  0.00    -0.380 OA
HETATM   25  H   UNL     1      45.470  35.415  41.593  1.00  0.00     0.211 HD
ENDBRANCH  23  24
ENDBRANCH  19  23
BRANCH  20  26
HETATM   26  O   UNL     1      45.298  40.070  41.730  1.00  0.00    -0.380 OA
HETATM   27  H   UNL     1      45.311  40.683  42.484  1.00  0.00     0.211 HD
ENDBRANCH  20  26
BRANCH  21  28
HETATM   28  O   UNL     1      42.735  41.327  41.502  1.00  0.00    -0.380 OA
HETATM   29  H   UNL     1      41.837  41.275  41.121  1.00  0.00     0.211 HD
ENDBRANCH  21  28
BRANCH  22  30
HETATM   30  O   UNL     1      41.856  41.150  44.211  1.00  0.00    -0.378 OA
HETATM   31  H   UNL     1      41.961  42.101  44.012  1.00  0.00     0.211 HD
ENDBRANCH  22  30
ENDBRANCH   1  17
TORSDOF 12
ENDMDL
