MODEL 1
REMARK VINA RESULT:    -5.968      0.000      0.000
REMARK INTER + INTRA:          -7.806
REMARK INTER:                  -7.363
REMARK INTRA:                  -0.443
REMARK UNBOUND:                -0.443
REMARK  6 active torsions:
REMARK  status: ('A' for Active; 'I' for Inactive)
REMARK    1  A    between atoms: S_1  and  C_15 
REMARK    2  A    between atoms: O_3  and  C_10 
REMARK    3  A    between atoms: O_4  and  C_12 
REMARK    4  A    between atoms: O_5  and  C_13 
REMARK    5  A    between atoms: O_6  and  C_14 
REMARK    6  A    between atoms: C_11  and  C_15 
ROOT
HETATM    1  O   UNL     1      45.777  43.012  50.043  1.00  0.00    -0.328 OA
HETATM    2  C   UNL     1      43.648  43.846  49.129  1.00  0.00     0.168 C 
HETATM    3  C   UNL     1      44.629  43.856  50.326  1.00  0.00     0.166 C 
HETATM    4  C   UNL     1      44.382  44.159  47.812  1.00  0.00     0.172 C 
HETATM    5  C   UNL     1      45.616  43.277  47.621  1.00  0.00     0.197 C 
HETATM    6  C   UNL     1      46.493  43.363  48.876  1.00  0.00     0.263 C 
ENDROOT
BRANCH   3   7
HETATM    7  C   UNL     1      44.047  43.275  51.615  1.00  0.00     0.178 C 
BRANCH   7   8
HETATM    8  S   UNL     1      42.981  44.373  52.493  1.00  0.00     0.118 S 
HETATM    9  O   UNL     1      41.650  43.897  52.119  1.00  0.00    -0.594 OA
HETATM   10  O   UNL     1      43.342  44.140  53.887  1.00  0.00    -0.594 OA
HETATM   11  O   UNL     1      43.336  45.687  51.970  1.00  0.00    -0.594 OA
ENDBRANCH   7   8
ENDBRANCH   3   7
BRANCH   2  12
HETATM   12  O   UNL     1      42.595  44.814  49.186  1.00  0.00    -0.380 OA
HETATM   13  H   UNL     1      42.183  44.782  50.089  1.00  0.00     0.211 HD
ENDBRANCH   2  12
BRANCH   6  14
HETATM   14  O   UNL     1      47.039  44.670  49.006  1.00  0.00    -0.359 OA
HETATM   15  H   UNL     1      46.961  44.870  49.956  1.00  0.00     0.213 HD
ENDBRANCH   6  14
BRANCH   4  16
HETATM   16  O   UNL     1      43.456  43.981  46.724  1.00  0.00    -0.380 OA
HETATM   17  H   UNL     1      42.783  44.677  46.880  1.00  0.00     0.211 HD
ENDBRANCH   4  16
BRANCH   5  18
HETATM   18  O   UNL     1      46.378  43.691  46.473  1.00  0.00    -0.378 OA
HETATM   19  H   UNL     1      46.216  43.003  45.799  1.00  0.00     0.211 HD
ENDBRANCH   5  18
TORSDOF 6
ENDMDL
MODEL 2
REMARK VINA RESULT:    -5.764      1.981      3.389
REMARK INTER + INTRA:          -7.555
REMARK INTER:                  -7.122
REMARK INTRA:                  -0.432
REMARK UNBOUND:                -0.443
REMARK  6 active torsions:
REMARK  status: ('A' for Active; 'I' for Inactive)
REMARK    1  A    between atoms: S_1  and  C_15 
REMARK    2  A    between atoms: O_3  and  C_10 
REMARK    3  A    between atoms: O_4  and  C_12 
REMARK    4  A    between atoms: O_5  and  C_13 
REMARK    5  A    between atoms: O_6  and  C_14 
REMARK    6  A    between atoms: C_11  and  C_15 
ROOT
HETATM    1  O   UNL     1      44.074  44.429  49.608  1.00  0.00    -0.328 OA
HETATM    2  C   UNL     1      46.106  43.306  48.788  1.00  0.00     0.168 C 
HETATM    3  C   UNL     1      45.037  43.383  49.905  1.00  0.00     0.166 C 
HETATM    4  C   UNL     1      45.446  43.214  47.400  1.00  0.00     0.172 C 
HETATM    5  C   UNL     1      44.397  44.306  47.191  1.00  0.00     0.197 C 
HETATM    6  C   UNL     1      43.412  44.287  48.366  1.00  0.00     0.263 C 
ENDROOT
BRANCH   3   7
HETATM    7  C   UNL     1      45.594  43.767  51.276  1.00  0.00     0.178 C 
BRANCH   7   8
HETATM    8  S   UNL     1      45.936  42.397  52.333  1.00  0.00     0.118 S 
HETATM    9  O   UNL     1      47.249  41.951  51.868  1.00  0.00    -0.594 OA
HETATM   10  O   UNL     1      45.932  42.997  53.663  1.00  0.00    -0.594 OA
HETATM   11  O   UNL     1      44.839  41.474  52.064  1.00  0.00    -0.594 OA
ENDBRANCH   7   8
ENDBRANCH   3   7
BRANCH   2  12
HETATM   12  O   UNL     1      46.975  42.171  48.844  1.00  0.00    -0.380 OA
HETATM   13  H   UNL     1      47.087  41.810  47.926  1.00  0.00     0.211 HD
ENDBRANCH   2  12
BRANCH   6  14
HETATM   14  O   UNL     1      42.648  43.087  48.349  1.00  0.00    -0.359 OA
HETATM   15  H   UNL     1      43.222  42.443  47.898  1.00  0.00     0.213 HD
ENDBRANCH   6  14
BRANCH   4  16
HETATM   16  O   UNL     1      46.480  43.304  46.400  1.00  0.00    -0.380 OA
HETATM   17  H   UNL     1      46.602  44.270  46.284  1.00  0.00     0.211 HD
ENDBRANCH   4  16
BRANCH   5  18
HETATM   18  O   UNL     1      43.679  44.107  45.959  1.00  0.00    -0.378 OA
HETATM   19  H   UNL     1      43.048  43.385  46.147  1.00  0.00     0.211 HD
ENDBRANCH   5  18
TORSDOF 6
ENDMDL
MODEL 3
REMARK VINA RESULT:    -5.398      1.450      1.958
REMARK INTER + INTRA:          -7.104
REMARK INTER:                  -6.669
REMARK INTRA:                  -0.435
REMARK UNBOUND:                -0.443
REMARK  6 active torsions:
REMARK  status: ('A' for Active; 'I' for Inactive)
REMARK    1  A    between atoms: S_1  and  C_15 
REMARK    2  A    between atoms: O_3  and  C_10 
REMARK    3  A    between atoms: O_4  and  C_12 
REMARK    4  A    between atoms: O_5  and  C_13 
REMARK    5  A    between atoms: O_6  and  C_14 
REMARK    6  A    between atoms: C_11  and  C_15 
ROOT
HETATM    1  O   UNL     1      46.289  43.518  50.840  1.00  0.00    -0.328 OA
HETATM    2  C   UNL     1      43.840  43.698  50.652  1.00  0.00     0.168 C 
HETATM    3  C   UNL     1      45.121  44.209  51.357  1.00  0.00     0.166 C 
HETATM    4  C   UNL     1      44.001  43.737  49.121  1.00  0.00     0.172 C 
HETATM    5  C   UNL     1      45.287  43.050  48.663  1.00  0.00     0.197 C 
HETATM    6  C   UNL     1      46.473  43.632  49.443  1.00  0.00     0.263 C 
ENDROOT
BRANCH   3   7
HETATM    7  C   UNL     1      45.157  43.933  52.860  1.00  0.00     0.178 C 
BRANCH   7   8
HETATM    8  S   UNL     1      44.475  45.221  53.854  1.00  0.00     0.118 S 
HETATM    9  O   UNL     1      44.798  46.424  53.089  1.00  0.00    -0.594 OA
HETATM   10  O   UNL     1      43.055  44.888  53.896  1.00  0.00    -0.594 OA
HETATM   11  O   UNL     1      45.183  45.087  55.122  1.00  0.00    -0.594 OA
ENDBRANCH   7   8
ENDBRANCH   3   7
BRANCH   2  12
HETATM   12  O   UNL     1      42.653  44.457  50.903  1.00  0.00    -0.380 OA
HETATM   13  H   UNL     1      42.128  44.513  50.063  1.00  0.00     0.211 HD
ENDBRANCH   2  12
BRANCH   6  14
HETATM   14  O   UNL     1      46.679  44.993  49.082  1.00  0.00    -0.359 OA
HETATM   15  H   UNL     1      46.825  45.448  49.931  1.00  0.00     0.213 HD
ENDBRANCH   6  14
BRANCH   4  16
HETATM   16  O   UNL     1      42.849  43.107  48.528  1.00  0.00    -0.380 OA
HETATM   17  H   UNL     1      42.581  42.444  49.199  1.00  0.00     0.211 HD
ENDBRANCH   4  16
BRANCH   5  18
HETATM   18  O   UNL     1      45.502  43.238  47.252  1.00  0.00    -0.378 OA
HETATM   19  H   UNL     1      45.876  42.392  46.937  1.00  0.00     0.211 HD
ENDBRANCH   5  18
TORSDOF 6
ENDMDL
MODEL 4
REMARK VINA RESULT:    -5.391      2.620      3.829
REMARK INTER + INTRA:          -7.094
REMARK INTER:                  -6.611
REMARK INTRA:                  -0.483
REMARK UNBOUND:                -0.443
REMARK  6 active torsions:
REMARK  status: ('A' for Active; 'I' for Inactive)
REMARK    1  A    between atoms: S_1  and  C_15 
REMARK    2  A    between atoms: O_3  and  C_10 
REMARK    3  A    between atoms: O_4  and  C_12 
REMARK    4  A    between atoms: O_5  and  C_13 
REMARK    5  A    between atoms: O_6  and  C_14 
REMARK    6  A    between atoms: C_11  and  C_15 
ROOT
HETATM    1  O   UNL     1      45.944  44.387  49.287  1.00  0.00    -0.328 OA
HETATM    2  C   UNL     1      47.516  42.492  49.342  1.00  0.00     0.168 C 
HETATM    3  C   UNL     1      46.460  43.315  50.121  1.00  0.00     0.166 C 
HETATM    4  C   UNL     1      46.970  42.052  47.971  1.00  0.00     0.172 C 
HETATM    5  C   UNL     1      46.383  43.224  47.186  1.00  0.00     0.197 C 
HETATM    6  C   UNL     1      45.368  43.962  48.068  1.00  0.00     0.263 C 
ENDROOT
BRANCH   3   7
HETATM    7  C   UNL     1      47.011  44.032  51.353  1.00  0.00     0.178 C 
BRANCH   7   8
HETATM    8  S   UNL     1      47.114  43.024  52.797  1.00  0.00     0.118 S 
HETATM    9  O   UNL     1      46.121  41.983  52.535  1.00  0.00    -0.594 OA
HETATM   10  O   UNL     1      48.499  42.563  52.781  1.00  0.00    -0.594 OA
HETATM   11  O   UNL     1      46.777  43.941  53.880  1.00  0.00    -0.594 OA
ENDBRANCH   7   8
ENDBRANCH   3   7
BRANCH   2  12
HETATM   12  O   UNL     1      47.931  41.273  49.967  1.00  0.00    -0.380 OA
HETATM   13  H   UNL     1      47.769  41.345  50.944  1.00  0.00     0.211 HD
ENDBRANCH   2  12
BRANCH   6  14
HETATM   14  O   UNL     1      44.239  43.133  48.317  1.00  0.00    -0.359 OA
HETATM   15  H   UNL     1      44.000  43.323  49.242  1.00  0.00     0.213 HD
ENDBRANCH   6  14
BRANCH   4  16
HETATM   16  O   UNL     1      48.043  41.433  47.235  1.00  0.00    -0.380 OA
HETATM   17  H   UNL     1      48.824  41.568  47.812  1.00  0.00     0.211 HD
ENDBRANCH   4  16
BRANCH   5  18
HETATM   18  O   UNL     1      45.734  42.771  45.984  1.00  0.00    -0.378 OA
HETATM   19  H   UNL     1      45.735  41.796  46.047  1.00  0.00     0.211 HD
ENDBRANCH   5  18
TORSDOF 6
ENDMDL
MODEL 5
REMARK VINA RESULT:    -5.289      1.746      2.383
REMARK INTER + INTRA:          -6.969
REMARK INTER:                  -6.588
REMARK INTRA:                  -0.380
REMARK UNBOUND:                -0.443
REMARK  6 active torsions:
REMARK  status: ('A' for Active; 'I' for Inactive)
REMARK    1  A    between atoms: S_1  and  C_15 
REMARK    2  A    between atoms: O_3  and  C_10 
REMARK    3  A    between atoms: O_4  and  C_12 
REMARK    4  A    between atoms: O_5  and  C_13 
REMARK    5  A    between atoms: O_6  and  C_14 
REMARK    6  A    between atoms: C_11  and  C_15 
ROOT
HETATM    1  O   UNL     1      46.352  43.340  52.049  1.00  0.00    -0.328 OA
HETATM    2  C   UNL     1      45.169  42.698  49.987  1.00  0.00     0.168 C 
HETATM    3  C   UNL     1      45.119  43.515  51.301  1.00  0.00     0.166 C 
HETATM    4  C   UNL     1      46.460  42.996  49.202  1.00  0.00     0.172 C 
HETATM    5  C   UNL     1      47.706  42.856  50.076  1.00  0.00     0.197 C 
HETATM    6  C   UNL     1      47.526  43.697  51.346  1.00  0.00     0.263 C 
ENDROOT
BRANCH   3   7
HETATM    7  C   UNL     1      44.026  43.069  52.273  1.00  0.00     0.178 C 
BRANCH   7   8
HETATM    8  S   UNL     1      42.695  44.213  52.447  1.00  0.00     0.118 S 
HETATM    9  O   UNL     1      42.507  44.699  51.080  1.00  0.00    -0.594 OA
HETATM   10  O   UNL     1      41.608  43.381  52.953  1.00  0.00    -0.594 OA
HETATM   11  O   UNL     1      43.212  45.200  53.388  1.00  0.00    -0.594 OA
ENDBRANCH   7   8
ENDBRANCH   3   7
BRANCH   2  12
HETATM   12  O   UNL     1      44.117  42.966  49.055  1.00  0.00    -0.380 OA
HETATM   13  H   UNL     1      44.514  43.084  48.153  1.00  0.00     0.211 HD
ENDBRANCH   2  12
BRANCH   6  14
HETATM   14  O   UNL     1      47.503  45.082  51.020  1.00  0.00    -0.359 OA
HETATM   15  H   UNL     1      47.801  45.525  51.834  1.00  0.00     0.213 HD
ENDBRANCH   6  14
BRANCH   4  16
HETATM   16  O   UNL     1      46.523  42.096  48.078  1.00  0.00    -0.380 OA
HETATM   17  H   UNL     1      45.724  41.539  48.187  1.00  0.00     0.211 HD
ENDBRANCH   4  16
BRANCH   5  18
HETATM   18  O   UNL     1      48.884  43.294  49.373  1.00  0.00    -0.378 OA
HETATM   19  H   UNL     1      49.364  42.474  49.148  1.00  0.00     0.211 HD
ENDBRANCH   5  18
TORSDOF 6
ENDMDL
MODEL 6
REMARK VINA RESULT:    -5.159      2.517      5.393
REMARK INTER + INTRA:          -6.808
REMARK INTER:                  -6.386
REMARK INTRA:                  -0.422
REMARK UNBOUND:                -0.443
REMARK  6 active torsions:
REMARK  status: ('A' for Active; 'I' for Inactive)
REMARK    1  A    between atoms: S_1  and  C_15 
REMARK    2  A    between atoms: O_3  and  C_10 
REMARK    3  A    between atoms: O_4  and  C_12 
REMARK    4  A    between atoms: O_5  and  C_13 
REMARK    5  A    between atoms: O_6  and  C_14 
REMARK    6  A    between atoms: C_11  and  C_15 
ROOT
HETATM    1  O   UNL     1      44.310  42.613  51.157  1.00  0.00    -0.328 OA
HETATM    2  C   UNL     1      46.137  44.207  51.586  1.00  0.00     0.168 C 
HETATM    3  C   UNL     1      45.460  43.268  50.558  1.00  0.00     0.166 C 
HETATM    4  C   UNL     1      45.107  45.153  52.230  1.00  0.00     0.172 C 
HETATM    5  C   UNL     1      43.896  44.395  52.774  1.00  0.00     0.197 C 
HETATM    6  C   UNL     1      43.330  43.494  51.670  1.00  0.00     0.263 C 
ENDROOT
BRANCH   3   7
HETATM    7  C   UNL     1      46.346  42.113  50.090  1.00  0.00     0.178 C 
BRANCH   7   8
HETATM    8  S   UNL     1      47.369  42.494  48.705  1.00  0.00     0.118 S 
HETATM    9  O   UNL     1      47.564  41.187  48.079  1.00  0.00    -0.594 OA
HETATM   10  O   UNL     1      46.549  43.423  47.935  1.00  0.00    -0.594 OA
HETATM   11  O   UNL     1      48.563  43.073  49.311  1.00  0.00    -0.594 OA
ENDBRANCH   7   8
ENDBRANCH   3   7
BRANCH   2  12
HETATM   12  O   UNL     1      47.138  45.081  51.056  1.00  0.00    -0.380 OA
HETATM   13  H   UNL     1      46.771  46.003  51.025  1.00  0.00     0.211 HD
ENDBRANCH   2  12
BRANCH   6  14
HETATM   14  O   UNL     1      42.781  44.285  50.623  1.00  0.00    -0.359 OA
HETATM   15  H   UNL     1      41.828  44.085  50.644  1.00  0.00     0.213 HD
ENDBRANCH   6  14
BRANCH   4  16
HETATM   16  O   UNL     1      45.762  45.887  53.282  1.00  0.00    -0.380 OA
HETATM   17  H   UNL     1      45.609  45.334  54.077  1.00  0.00     0.211 HD
ENDBRANCH   4  16
BRANCH   5  18
HETATM   18  O   UNL     1      42.874  45.303  53.224  1.00  0.00    -0.378 OA
HETATM   19  H   UNL     1      42.136  45.187  52.594  1.00  0.00     0.211 HD
ENDBRANCH   5  18
TORSDOF 6
ENDMDL
MODEL 7
REMARK VINA RESULT:    -5.128      2.387      5.091
REMARK INTER + INTRA:          -6.770
REMARK INTER:                  -6.396
REMARK INTRA:                  -0.374
REMARK UNBOUND:                -0.443
REMARK  6 active torsions:
REMARK  status: ('A' for Active; 'I' for Inactive)
REMARK    1  A    between atoms: S_1  and  C_15 
REMARK    2  A    between atoms: O_3  and  C_10 
REMARK    3  A    between atoms: O_4  and  C_12 
REMARK    4  A    between atoms: O_5  and  C_13 
REMARK    5  A    between atoms: O_6  and  C_14 
REMARK    6  A    between atoms: C_11  and  C_15 
ROOT
HETATM    1  O   UNL     1      45.992  44.969  51.577  1.00  0.00    -0.328 OA
HETATM    2  C   UNL     1      44.076  43.757  50.616  1.00  0.00     0.168 C 
HETATM    3  C   UNL     1      45.616  43.829  50.758  1.00  0.00     0.166 C 
HETATM    4  C   UNL     1      43.392  43.827  51.994  1.00  0.00     0.172 C 
HETATM    5  C   UNL     1      43.891  45.012  52.820  1.00  0.00     0.197 C 
HETATM    6  C   UNL     1      45.423  44.978  52.872  1.00  0.00     0.263 C 
ENDROOT
BRANCH   3   7
HETATM    7  C   UNL     1      46.354  44.058  49.439  1.00  0.00     0.178 C 
BRANCH   7   8
HETATM    8  S   UNL     1      47.070  42.604  48.743  1.00  0.00     0.118 S 
HETATM    9  O   UNL     1      46.373  41.531  49.451  1.00  0.00    -0.594 OA
HETATM   10  O   UNL     1      46.738  42.717  47.327  1.00  0.00    -0.594 OA
HETATM   11  O   UNL     1      48.488  42.734  49.061  1.00  0.00    -0.594 OA
ENDBRANCH   7   8
ENDBRANCH   3   7
BRANCH   2  12
HETATM   12  O   UNL     1      43.567  42.555  50.028  1.00  0.00    -0.380 OA
HETATM   13  H   UNL     1      42.665  42.740  49.657  1.00  0.00     0.211 HD
ENDBRANCH   2  12
BRANCH   6  14
HETATM   14  O   UNL     1      45.866  43.848  53.613  1.00  0.00    -0.359 OA
HETATM   15  H   UNL     1      46.748  43.652  53.251  1.00  0.00     0.213 HD
ENDBRANCH   6  14
BRANCH   4  16
HETATM   16  O   UNL     1      41.969  43.914  51.788  1.00  0.00    -0.380 OA
HETATM   17  H   UNL     1      41.882  43.976  50.813  1.00  0.00     0.211 HD
ENDBRANCH   4  16
BRANCH   5  18
HETATM   18  O   UNL     1      43.365  44.969  54.159  1.00  0.00    -0.378 OA
HETATM   19  H   UNL     1      43.408  45.891  54.479  1.00  0.00     0.211 HD
ENDBRANCH   5  18
TORSDOF 6
ENDMDL
MODEL 8
REMARK VINA RESULT:    -5.035      2.179      3.559
REMARK INTER + INTRA:          -6.655
REMARK INTER:                  -6.172
REMARK INTRA:                  -0.483
REMARK UNBOUND:                -0.443
REMARK  6 active torsions:
REMARK  status: ('A' for Active; 'I' for Inactive)
REMARK    1  A    between atoms: S_1  and  C_15 
REMARK    2  A    between atoms: O_3  and  C_10 
REMARK    3  A    between atoms: O_4  and  C_12 
REMARK    4  A    between atoms: O_5  and  C_13 
REMARK    5  A    between atoms: O_6  and  C_14 
REMARK    6  A    between atoms: C_11  and  C_15 
ROOT
HETATM    1  O   UNL     1      43.746  44.506  51.114  1.00  0.00    -0.328 OA
HETATM    2  C   UNL     1      46.208  44.555  51.142  1.00  0.00     0.168 C 
HETATM    3  C   UNL     1      44.916  44.217  51.926  1.00  0.00     0.166 C 
HETATM    4  C   UNL     1      46.196  43.896  49.750  1.00  0.00     0.172 C 
HETATM    5  C   UNL     1      44.904  44.190  48.988  1.00  0.00     0.197 C 
HETATM    6  C   UNL     1      43.706  43.829  49.874  1.00  0.00     0.263 C 
ENDROOT
BRANCH   3   7
HETATM    7  C   UNL     1      44.714  45.058  53.187  1.00  0.00     0.178 C 
BRANCH   7   8
HETATM    8  S   UNL     1      45.646  44.514  54.582  1.00  0.00     0.118 S 
HETATM    9  O   UNL     1      46.829  45.372  54.533  1.00  0.00    -0.594 OA
HETATM   10  O   UNL     1      44.748  44.777  55.702  1.00  0.00    -0.594 OA
HETATM   11  O   UNL     1      45.893  43.104  54.301  1.00  0.00    -0.594 OA
ENDBRANCH   7   8
ENDBRANCH   3   7
BRANCH   2  12
HETATM   12  O   UNL     1      47.428  44.102  51.739  1.00  0.00    -0.380 OA
HETATM   13  H   UNL     1      47.329  44.133  52.726  1.00  0.00     0.211 HD
ENDBRANCH   2  12
BRANCH   6  14
HETATM   14  O   UNL     1      43.654  42.422  50.082  1.00  0.00    -0.359 OA
HETATM   15  H   UNL     1      44.573  42.126  49.959  1.00  0.00     0.213 HD
ENDBRANCH   6  14
BRANCH   4  16
HETATM   16  O   UNL     1      47.340  44.371  49.015  1.00  0.00    -0.380 OA
HETATM   17  H   UNL     1      47.817  44.927  49.667  1.00  0.00     0.211 HD
ENDBRANCH   4  16
BRANCH   5  18
HETATM   18  O   UNL     1      44.841  43.437  47.764  1.00  0.00    -0.378 OA
HETATM   19  H   UNL     1      45.589  43.762  47.226  1.00  0.00     0.211 HD
ENDBRANCH   5  18
TORSDOF 6
ENDMDL
MODEL 9
REMARK VINA RESULT:    -4.902      2.095      5.398
REMARK INTER + INTRA:          -6.491
REMARK INTER:                  -6.068
REMARK INTRA:                  -0.423
REMARK UNBOUND:                -0.443
REMARK  6 active torsions:
REMARK  status: ('A' for Active; 'I' for Inactive)
REMARK    1  A    between atoms: S_1  and  C_15 
REMARK    2  A    between atoms: O_3  and  C_10 
REMARK    3  A    between atoms: O_4  and  C_12 
REMARK    4  A    between atoms: O_5  and  C_13 
REMARK    5  A    between atoms: O_6  and  C_14 
REMARK    6  A    between atoms: C_11  and  C_15 
ROOT
HETATM    1  O   UNL     1      43.550  44.226  50.549  1.00  0.00    -0.328 OA
HETATM    2  C   UNL     1      44.798  42.255  51.338  1.00  0.00     0.168 C 
HETATM    3  C   UNL     1      44.811  43.515  50.437  1.00  0.00     0.166 C 
HETATM    4  C   UNL     1      44.371  42.610  52.774  1.00  0.00     0.172 C 
HETATM    5  C   UNL     1      43.073  43.416  52.803  1.00  0.00     0.197 C 
HETATM    6  C   UNL     1      43.210  44.621  51.863  1.00  0.00     0.263 C 
ENDROOT
BRANCH   3   7
HETATM    7  C   UNL     1      44.939  43.212  48.944  1.00  0.00     0.178 C 
BRANCH   7   8
HETATM    8  S   UNL     1      46.585  43.305  48.319  1.00  0.00     0.118 S 
HETATM    9  O   UNL     1      46.379  43.361  46.873  1.00  0.00    -0.594 OA
HETATM   10  O   UNL     1      47.094  44.539  48.910  1.00  0.00    -0.594 OA
HETATM   11  O   UNL     1      47.207  42.080  48.808  1.00  0.00    -0.594 OA
ENDBRANCH   7   8
ENDBRANCH   3   7
BRANCH   2  12
HETATM   12  O   UNL     1      46.059  41.597  51.495  1.00  0.00    -0.380 OA
HETATM   13  H   UNL     1      46.264  41.099  50.661  1.00  0.00     0.211 HD
ENDBRANCH   2  12
BRANCH   6  14
HETATM   14  O   UNL     1      44.176  45.533  52.370  1.00  0.00    -0.359 OA
HETATM   15  H   UNL     1      43.662  46.142  52.931  1.00  0.00     0.213 HD
ENDBRANCH   6  14
BRANCH   4  16
HETATM   16  O   UNL     1      44.226  41.385  53.518  1.00  0.00    -0.380 OA
HETATM   17  H   UNL     1      44.583  40.704  52.910  1.00  0.00     0.211 HD
ENDBRANCH   4  16
BRANCH   5  18
HETATM   18  O   UNL     1      42.777  43.877  54.134  1.00  0.00    -0.378 OA
HETATM   19  H   UNL     1      41.806  43.980  54.157  1.00  0.00     0.211 HD
ENDBRANCH   5  18
TORSDOF 6
ENDMDL
MODEL 10
REMARK VINA RESULT:    -4.832      2.502      5.400
REMARK INTER + INTRA:          -6.405
REMARK INTER:                  -5.986
REMARK INTRA:                  -0.419
REMARK UNBOUND:                -0.443
REMARK  6 active torsions:
REMARK  status: ('A' for Active; 'I' for Inactive)
REMARK    1  A    between atoms: S_1  and  C_15 
REMARK    2  A    between atoms: O_3  and  C_10 
REMARK    3  A    between atoms: O_4  and  C_12 
REMARK    4  A    between atoms: O_5  and  C_13 
REMARK    5  A    between atoms: O_6  and  C_14 
REMARK    6  A    between atoms: C_11  and  C_15 
ROOT
HETATM    1  O   UNL     1      45.419  43.262  53.286  1.00  0.00    -0.328 OA
HETATM    2  C   UNL     1      43.524  44.293  52.099  1.00  0.00     0.168 C 
HETATM    3  C   UNL     1      44.838  43.483  51.973  1.00  0.00     0.166 C 
HETATM    4  C   UNL     1      42.580  43.654  53.134  1.00  0.00     0.172 C 
HETATM    5  C   UNL     1      43.285  43.391  54.465  1.00  0.00     0.197 C 
HETATM    6  C   UNL     1      44.572  42.599  54.203  1.00  0.00     0.263 C 
ENDROOT
BRANCH   3   7
HETATM    7  C   UNL     1      45.940  44.199  51.192  1.00  0.00     0.178 C 
BRANCH   7   8
HETATM    8  S   UNL     1      46.124  43.653  49.525  1.00  0.00     0.118 S 
HETATM    9  O   UNL     1      47.443  44.168  49.161  1.00  0.00    -0.594 OA
HETATM   10  O   UNL     1      46.047  42.201  49.642  1.00  0.00    -0.594 OA
HETATM   11  O   UNL     1      45.004  44.281  48.834  1.00  0.00    -0.594 OA
ENDBRANCH   7   8
ENDBRANCH   3   7
BRANCH   2  12
HETATM   12  O   UNL     1      42.737  44.379  50.907  1.00  0.00    -0.380 OA
HETATM   13  H   UNL     1      42.949  43.601  50.328  1.00  0.00     0.211 HD
ENDBRANCH   2  12
BRANCH   6  14
HETATM   14  O   UNL     1      44.259  41.294  53.730  1.00  0.00    -0.359 OA
HETATM   15  H   UNL     1      45.125  40.863  53.621  1.00  0.00     0.213 HD
ENDBRANCH   6  14
BRANCH   4  16
HETATM   16  O   UNL     1      41.453  44.532  53.321  1.00  0.00    -0.380 OA
HETATM   17  H   UNL     1      41.822  45.267  53.854  1.00  0.00     0.211 HD
ENDBRANCH   4  16
BRANCH   5  18
HETATM   18  O   UNL     1      42.439  42.649  55.362  1.00  0.00    -0.378 OA
HETATM   19  H   UNL     1      42.066  43.316  55.970  1.00  0.00     0.211 HD
ENDBRANCH   5  18
TORSDOF 6
ENDMDL
