MODEL 1
REMARK VINA RESULT:    -6.032      0.000      0.000
REMARK INTER + INTRA:          -7.884
REMARK INTER:                  -7.495
REMARK INTRA:                  -0.389
REMARK UNBOUND:                -0.441
REMARK  6 active torsions:
REMARK  status: ('A' for Active; 'I' for Inactive)
REMARK    1  A    between atoms: S_1  and  C_15 
REMARK    2  A    between atoms: O_3  and  C_10 
REMARK    3  A    between atoms: O_4  and  C_12 
REMARK    4  A    between atoms: O_5  and  C_13 
REMARK    5  A    between atoms: O_6  and  C_14 
REMARK    6  A    between atoms: C_11  and  C_15 
ROOT
HETATM    1  O   UNL     1      42.894  44.866  49.533  1.00  0.00    -0.328 OA
HETATM    2  C   UNL     1      44.910  43.790  50.449  1.00  0.00     0.168 C 
HETATM    3  C   UNL     1      43.401  44.077  50.642  1.00  0.00     0.166 C 
HETATM    4  C   UNL     1      45.186  43.207  49.051  1.00  0.00     0.172 C 
HETATM    5  C   UNL     1      44.562  44.057  47.944  1.00  0.00     0.197 C 
HETATM    6  C   UNL     1      43.078  44.280  48.259  1.00  0.00     0.263 C 
ENDROOT
BRANCH   3   7
HETATM    7  C   UNL     1      43.079  44.918  51.877  1.00  0.00     0.178 C 
BRANCH   7   8
HETATM    8  S   UNL     1      42.297  44.026  53.183  1.00  0.00     0.118 S 
HETATM    9  O   UNL     1      42.520  44.890  54.341  1.00  0.00    -0.594 OA
HETATM   10  O   UNL     1      40.909  43.944  52.741  1.00  0.00    -0.594 OA
HETATM   11  O   UNL     1      43.017  42.758  53.210  1.00  0.00    -0.594 OA
ENDBRANCH   7   8
ENDBRANCH   3   7
BRANCH   2  12
HETATM   12  O   UNL     1      45.476  42.832  51.350  1.00  0.00    -0.380 OA
HETATM   13  H   UNL     1      46.458  42.970  51.385  1.00  0.00     0.211 HD
ENDBRANCH   2  12
BRANCH   6  14
HETATM   14  O   UNL     1      42.366  43.052  48.174  1.00  0.00    -0.359 OA
HETATM   15  H   UNL     1      41.806  43.152  47.383  1.00  0.00     0.213 HD
ENDBRANCH   6  14
BRANCH   4  16
HETATM   16  O   UNL     1      46.612  43.110  48.874  1.00  0.00    -0.380 OA
HETATM   17  H   UNL     1      46.961  43.850  49.414  1.00  0.00     0.211 HD
ENDBRANCH   4  16
BRANCH   5  18
HETATM   18  O   UNL     1      44.689  43.414  46.662  1.00  0.00    -0.378 OA
HETATM   19  H   UNL     1      43.790  43.099  46.446  1.00  0.00     0.211 HD
ENDBRANCH   5  18
TORSDOF 6
ENDMDL
MODEL 2
REMARK VINA RESULT:    -5.976      1.316      2.713
REMARK INTER + INTRA:          -7.815
REMARK INTER:                  -7.373
REMARK INTRA:                  -0.441
REMARK UNBOUND:                -0.441
REMARK  6 active torsions:
REMARK  status: ('A' for Active; 'I' for Inactive)
REMARK    1  A    between atoms: S_1  and  C_15 
REMARK    2  A    between atoms: O_3  and  C_10 
REMARK    3  A    between atoms: O_4  and  C_12 
REMARK    4  A    between atoms: O_5  and  C_13 
REMARK    5  A    between atoms: O_6  and  C_14 
REMARK    6  A    between atoms: C_11  and  C_15 
ROOT
HETATM    1  O   UNL     1      45.758  43.029  50.104  1.00  0.00    -0.328 OA
HETATM    2  C   UNL     1      43.643  43.820  49.123  1.00  0.00     0.168 C 
HETATM    3  C   UNL     1      44.597  43.870  50.341  1.00  0.00     0.166 C 
HETATM    4  C   UNL     1      44.403  44.107  47.815  1.00  0.00     0.172 C 
HETATM    5  C   UNL     1      45.648  43.232  47.673  1.00  0.00     0.197 C 
HETATM    6  C   UNL     1      46.497  43.357  48.944  1.00  0.00     0.263 C 
ENDROOT
BRANCH   3   7
HETATM    7  C   UNL     1      43.992  43.316  51.631  1.00  0.00     0.178 C 
BRANCH   7   8
HETATM    8  S   UNL     1      42.922  44.436  52.473  1.00  0.00     0.118 S 
HETATM    9  O   UNL     1      43.295  45.729  51.902  1.00  0.00    -0.594 OA
HETATM   10  O   UNL     1      41.591  43.966  52.101  1.00  0.00    -0.594 OA
HETATM   11  O   UNL     1      43.274  44.256  53.877  1.00  0.00    -0.594 OA
ENDBRANCH   7   8
ENDBRANCH   3   7
BRANCH   2  12
HETATM   12  O   UNL     1      42.580  44.779  49.133  1.00  0.00    -0.380 OA
HETATM   13  H   UNL     1      41.803  44.387  49.609  1.00  0.00     0.211 HD
ENDBRANCH   2  12
BRANCH   6  14
HETATM   14  O   UNL     1      47.029  44.672  49.053  1.00  0.00    -0.359 OA
HETATM   15  H   UNL     1      46.715  44.988  49.919  1.00  0.00     0.213 HD
ENDBRANCH   6  14
BRANCH   4  16
HETATM   16  O   UNL     1      43.502  43.892  46.711  1.00  0.00    -0.380 OA
HETATM   17  H   UNL     1      43.811  44.534  46.037  1.00  0.00     0.211 HD
ENDBRANCH   4  16
BRANCH   5  18
HETATM   18  O   UNL     1      46.432  43.625  46.532  1.00  0.00    -0.378 OA
HETATM   19  H   UNL     1      46.442  44.601  46.554  1.00  0.00     0.211 HD
ENDBRANCH   5  18
TORSDOF 6
ENDMDL
MODEL 3
REMARK VINA RESULT:    -5.808      2.249      2.830
REMARK INTER + INTRA:          -7.608
REMARK INTER:                  -7.175
REMARK INTRA:                  -0.433
REMARK UNBOUND:                -0.441
REMARK  6 active torsions:
REMARK  status: ('A' for Active; 'I' for Inactive)
REMARK    1  A    between atoms: S_1  and  C_15 
REMARK    2  A    between atoms: O_3  and  C_10 
REMARK    3  A    between atoms: O_4  and  C_12 
REMARK    4  A    between atoms: O_5  and  C_13 
REMARK    5  A    between atoms: O_6  and  C_14 
REMARK    6  A    between atoms: C_11  and  C_15 
ROOT
HETATM    1  O   UNL     1      43.946  44.439  49.565  1.00  0.00    -0.328 OA
HETATM    2  C   UNL     1      46.016  43.368  48.772  1.00  0.00     0.168 C 
HETATM    3  C   UNL     1      44.927  43.414  49.872  1.00  0.00     0.166 C 
HETATM    4  C   UNL     1      45.381  43.270  47.373  1.00  0.00     0.172 C 
HETATM    5  C   UNL     1      44.311  44.339  47.153  1.00  0.00     0.197 C 
HETATM    6  C   UNL     1      43.308  44.290  48.312  1.00  0.00     0.263 C 
ENDROOT
BRANCH   3   7
HETATM    7  C   UNL     1      45.453  43.801  51.254  1.00  0.00     0.178 C 
BRANCH   7   8
HETATM    8  S   UNL     1      45.820  42.432  52.304  1.00  0.00     0.118 S 
HETATM    9  O   UNL     1      47.149  42.024  51.849  1.00  0.00    -0.594 OA
HETATM   10  O   UNL     1      45.786  43.020  53.639  1.00  0.00    -0.594 OA
HETATM   11  O   UNL     1      44.750  41.483  52.016  1.00  0.00    -0.594 OA
ENDBRANCH   7   8
ENDBRANCH   3   7
BRANCH   2  12
HETATM   12  O   UNL     1      46.910  42.252  48.835  1.00  0.00    -0.380 OA
HETATM   13  H   UNL     1      47.123  42.069  49.787  1.00  0.00     0.211 HD
ENDBRANCH   2  12
BRANCH   6  14
HETATM   14  O   UNL     1      42.572  43.074  48.274  1.00  0.00    -0.359 OA
HETATM   15  H   UNL     1      43.167  42.445  47.828  1.00  0.00     0.213 HD
ENDBRANCH   6  14
BRANCH   4  16
HETATM   16  O   UNL     1      46.429  43.390  46.391  1.00  0.00    -0.380 OA
HETATM   17  H   UNL     1      46.113  42.831  45.650  1.00  0.00     0.211 HD
ENDBRANCH   4  16
BRANCH   5  18
HETATM   18  O   UNL     1      43.618  44.132  45.909  1.00  0.00    -0.378 OA
HETATM   19  H   UNL     1      44.086  44.693  45.261  1.00  0.00     0.211 HD
ENDBRANCH   5  18
TORSDOF 6
ENDMDL
MODEL 4
REMARK VINA RESULT:    -5.407      1.708      2.956
REMARK INTER + INTRA:          -7.112
REMARK INTER:                  -6.684
REMARK INTRA:                  -0.428
REMARK UNBOUND:                -0.441
REMARK  6 active torsions:
REMARK  status: ('A' for Active; 'I' for Inactive)
REMARK    1  A    between atoms: S_1  and  C_15 
REMARK    2  A    between atoms: O_3  and  C_10 
REMARK    3  A    between atoms: O_4  and  C_12 
REMARK    4  A    between atoms: O_5  and  C_13 
REMARK    5  A    between atoms: O_6  and  C_14 
REMARK    6  A    between atoms: C_11  and  C_15 
ROOT
HETATM    1  O   UNL     1      46.284  43.442  50.887  1.00  0.00    -0.328 OA
HETATM    2  C   UNL     1      43.851  43.757  50.671  1.00  0.00     0.168 C 
HETATM    3  C   UNL     1      45.151  44.203  51.385  1.00  0.00     0.166 C 
HETATM    4  C   UNL     1      44.030  43.773  49.142  1.00  0.00     0.172 C 
HETATM    5  C   UNL     1      45.281  43.011  48.704  1.00  0.00     0.197 C 
HETATM    6  C   UNL     1      46.488  43.534  49.491  1.00  0.00     0.263 C 
ENDROOT
BRANCH   3   7
HETATM    7  C   UNL     1      45.157  43.939  52.891  1.00  0.00     0.178 C 
BRANCH   7   8
HETATM    8  S   UNL     1      44.492  45.252  53.863  1.00  0.00     0.118 S 
HETATM    9  O   UNL     1      44.873  46.441  53.102  1.00  0.00    -0.594 OA
HETATM   10  O   UNL     1      43.061  44.966  53.871  1.00  0.00    -0.594 OA
HETATM   11  O   UNL     1      45.164  45.101  55.149  1.00  0.00    -0.594 OA
ENDBRANCH   7   8
ENDBRANCH   3   7
BRANCH   2  12
HETATM   12  O   UNL     1      42.706  44.583  50.903  1.00  0.00    -0.380 OA
HETATM   13  H   UNL     1      42.336  44.369  51.799  1.00  0.00     0.211 HD
ENDBRANCH   2  12
BRANCH   6  14
HETATM   14  O   UNL     1      46.773  44.877  49.121  1.00  0.00    -0.359 OA
HETATM   15  H   UNL     1      47.734  44.884  48.960  1.00  0.00     0.213 HD
ENDBRANCH   6  14
BRANCH   4  16
HETATM   16  O   UNL     1      42.851  43.203  48.542  1.00  0.00    -0.380 OA
HETATM   17  H   UNL     1      43.164  42.901  47.663  1.00  0.00     0.211 HD
ENDBRANCH   4  16
BRANCH   5  18
HETATM   18  O   UNL     1      45.520  43.174  47.293  1.00  0.00    -0.378 OA
HETATM   19  H   UNL     1      44.634  43.276  46.896  1.00  0.00     0.211 HD
ENDBRANCH   5  18
TORSDOF 6
ENDMDL
MODEL 5
REMARK VINA RESULT:    -5.376      1.699      3.260
REMARK INTER + INTRA:          -7.074
REMARK INTER:                  -6.910
REMARK INTRA:                  -0.164
REMARK UNBOUND:                -0.441
REMARK  6 active torsions:
REMARK  status: ('A' for Active; 'I' for Inactive)
REMARK    1  A    between atoms: S_1  and  C_15 
REMARK    2  A    between atoms: O_3  and  C_10 
REMARK    3  A    between atoms: O_4  and  C_12 
REMARK    4  A    between atoms: O_5  and  C_13 
REMARK    5  A    between atoms: O_6  and  C_14 
REMARK    6  A    between atoms: C_11  and  C_15 
ROOT
HETATM    1  O   UNL     1      45.892  43.264  51.478  1.00  0.00    -0.328 OA
HETATM    2  C   UNL     1      45.177  43.090  49.128  1.00  0.00     0.168 C 
HETATM    3  C   UNL     1      44.861  43.658  50.534  1.00  0.00     0.166 C 
HETATM    4  C   UNL     1      46.617  43.433  48.706  1.00  0.00     0.172 C 
HETATM    5  C   UNL     1      47.635  43.051  49.781  1.00  0.00     0.197 C 
HETATM    6  C   UNL     1      47.202  43.660  51.121  1.00  0.00     0.263 C 
ENDROOT
BRANCH   3   7
HETATM    7  C   UNL     1      43.567  43.121  51.147  1.00  0.00     0.178 C 
BRANCH   7   8
HETATM    8  S   UNL     1      42.789  44.223  52.285  1.00  0.00     0.118 S 
HETATM    9  O   UNL     1      43.507  43.958  53.531  1.00  0.00    -0.594 OA
HETATM   10  O   UNL     1      43.044  45.535  51.701  1.00  0.00    -0.594 OA
HETATM   11  O   UNL     1      41.394  43.797  52.273  1.00  0.00    -0.594 OA
ENDBRANCH   7   8
ENDBRANCH   3   7
BRANCH   2  12
HETATM   12  O   UNL     1      44.365  43.594  48.063  1.00  0.00    -0.380 OA
HETATM   13  H   UNL     1      43.539  43.047  48.006  1.00  0.00     0.211 HD
ENDBRANCH   2  12
BRANCH   6  14
HETATM   14  O   UNL     1      47.292  45.078  51.069  1.00  0.00    -0.359 OA
HETATM   15  H   UNL     1      46.377  45.373  50.916  1.00  0.00     0.213 HD
ENDBRANCH   6  14
BRANCH   4  16
HETATM   16  O   UNL     1      46.902  42.749  47.471  1.00  0.00    -0.380 OA
HETATM   17  H   UNL     1      46.073  42.850  46.957  1.00  0.00     0.211 HD
ENDBRANCH   4  16
BRANCH   5  18
HETATM   18  O   UNL     1      48.951  43.525  49.442  1.00  0.00    -0.378 OA
HETATM   19  H   UNL     1      48.836  44.016  48.605  1.00  0.00     0.211 HD
ENDBRANCH   5  18
TORSDOF 6
ENDMDL
MODEL 6
REMARK VINA RESULT:    -5.139      2.602      5.501
REMARK INTER + INTRA:          -6.782
REMARK INTER:                  -6.430
REMARK INTRA:                  -0.352
REMARK UNBOUND:                -0.441
REMARK  6 active torsions:
REMARK  status: ('A' for Active; 'I' for Inactive)
REMARK    1  A    between atoms: S_1  and  C_15 
REMARK    2  A    between atoms: O_3  and  C_10 
REMARK    3  A    between atoms: O_4  and  C_12 
REMARK    4  A    between atoms: O_5  and  C_13 
REMARK    5  A    between atoms: O_6  and  C_14 
REMARK    6  A    between atoms: C_11  and  C_15 
ROOT
HETATM    1  O   UNL     1      46.265  44.974  51.035  1.00  0.00    -0.328 OA
HETATM    2  C   UNL     1      44.250  43.745  50.335  1.00  0.00     0.168 C 
HETATM    3  C   UNL     1      45.797  43.768  50.374  1.00  0.00     0.166 C 
HETATM    4  C   UNL     1      43.659  43.997  51.735  1.00  0.00     0.172 C 
HETATM    5  C   UNL     1      44.252  45.243  52.391  1.00  0.00     0.197 C 
HETATM    6  C   UNL     1      45.783  45.150  52.353  1.00  0.00     0.263 C 
ENDROOT
BRANCH   3   7
HETATM    7  C   UNL     1      46.456  43.818  48.995  1.00  0.00     0.178 C 
BRANCH   7   8
HETATM    8  S   UNL     1      47.297  42.338  48.536  1.00  0.00     0.118 S 
HETATM    9  O   UNL     1      46.545  41.306  49.248  1.00  0.00    -0.594 OA
HETATM   10  O   UNL     1      47.148  42.310  47.085  1.00  0.00    -0.594 OA
HETATM   11  O   UNL     1      48.657  42.554  49.017  1.00  0.00    -0.594 OA
ENDBRANCH   7   8
ENDBRANCH   3   7
BRANCH   2  12
HETATM   12  O   UNL     1      43.662  42.509  49.919  1.00  0.00    -0.380 OA
HETATM   13  H   UNL     1      43.086  42.681  49.129  1.00  0.00     0.211 HD
ENDBRANCH   2  12
BRANCH   6  14
HETATM   14  O   UNL     1      46.233  44.091  53.189  1.00  0.00    -0.359 OA
HETATM   15  H   UNL     1      46.250  44.480  54.082  1.00  0.00     0.213 HD
ENDBRANCH   6  14
BRANCH   4  16
HETATM   16  O   UNL     1      42.230  44.120  51.607  1.00  0.00    -0.380 OA
HETATM   17  H   UNL     1      41.973  43.312  51.115  1.00  0.00     0.211 HD
ENDBRANCH   4  16
BRANCH   5  18
HETATM   18  O   UNL     1      43.813  45.371  53.756  1.00  0.00    -0.378 OA
HETATM   19  H   UNL     1      44.026  44.513  54.172  1.00  0.00     0.211 HD
ENDBRANCH   5  18
TORSDOF 6
ENDMDL
MODEL 7
REMARK VINA RESULT:    -5.114      2.426      5.625
REMARK INTER + INTRA:          -6.751
REMARK INTER:                  -6.544
REMARK INTRA:                  -0.207
REMARK UNBOUND:                -0.441
REMARK  6 active torsions:
REMARK  status: ('A' for Active; 'I' for Inactive)
REMARK    1  A    between atoms: S_1  and  C_15 
REMARK    2  A    between atoms: O_3  and  C_10 
REMARK    3  A    between atoms: O_4  and  C_12 
REMARK    4  A    between atoms: O_5  and  C_13 
REMARK    5  A    between atoms: O_6  and  C_14 
REMARK    6  A    between atoms: C_11  and  C_15 
ROOT
HETATM    1  O   UNL     1      45.996  43.398  51.565  1.00  0.00    -0.328 OA
HETATM    2  C   UNL     1      43.772  43.463  50.511  1.00  0.00     0.168 C 
HETATM    3  C   UNL     1      45.224  42.933  50.426  1.00  0.00     0.166 C 
HETATM    4  C   UNL     1      43.154  43.161  51.888  1.00  0.00     0.172 C 
HETATM    5  C   UNL     1      44.057  43.618  53.033  1.00  0.00     0.197 C 
HETATM    6  C   UNL     1      45.463  43.040  52.825  1.00  0.00     0.263 C 
ENDROOT
BRANCH   3   7
HETATM    7  C   UNL     1      46.004  43.440  49.213  1.00  0.00     0.178 C 
BRANCH   7   8
HETATM    8  S   UNL     1      47.263  42.343  48.645  1.00  0.00     0.118 S 
HETATM    9  O   UNL     1      47.131  42.425  47.191  1.00  0.00    -0.594 OA
HETATM   10  O   UNL     1      48.484  42.935  49.181  1.00  0.00    -0.594 OA
HETATM   11  O   UNL     1      46.887  41.059  49.228  1.00  0.00    -0.594 OA
ENDBRANCH   7   8
ENDBRANCH   3   7
BRANCH   2  12
HETATM   12  O   UNL     1      42.851  42.892  49.576  1.00  0.00    -0.380 OA
HETATM   13  H   UNL     1      42.837  41.908  49.704  1.00  0.00     0.211 HD
ENDBRANCH   2  12
BRANCH   6  14
HETATM   14  O   UNL     1      45.439  41.625  52.968  1.00  0.00    -0.359 OA
HETATM   15  H   UNL     1      46.371  41.382  53.108  1.00  0.00     0.213 HD
ENDBRANCH   6  14
BRANCH   4  16
HETATM   16  O   UNL     1      41.871  43.813  51.962  1.00  0.00    -0.380 OA
HETATM   17  H   UNL     1      41.289  43.127  52.352  1.00  0.00     0.211 HD
ENDBRANCH   4  16
BRANCH   5  18
HETATM   18  O   UNL     1      43.543  43.184  54.305  1.00  0.00    -0.378 OA
HETATM   19  H   UNL     1      43.198  42.284  54.146  1.00  0.00     0.211 HD
ENDBRANCH   5  18
TORSDOF 6
ENDMDL
MODEL 8
REMARK VINA RESULT:    -5.000      2.287      2.617
REMARK INTER + INTRA:          -6.610
REMARK INTER:                  -6.127
REMARK INTRA:                  -0.483
REMARK UNBOUND:                -0.441
REMARK  6 active torsions:
REMARK  status: ('A' for Active; 'I' for Inactive)
REMARK    1  A    between atoms: S_1  and  C_15 
REMARK    2  A    between atoms: O_3  and  C_10 
REMARK    3  A    between atoms: O_4  and  C_12 
REMARK    4  A    between atoms: O_5  and  C_13 
REMARK    5  A    between atoms: O_6  and  C_14 
REMARK    6  A    between atoms: C_11  and  C_15 
ROOT
HETATM    1  O   UNL     1      43.820  44.480  51.130  1.00  0.00    -0.328 OA
HETATM    2  C   UNL     1      46.282  44.437  51.174  1.00  0.00     0.168 C 
HETATM    3  C   UNL     1      44.973  44.140  51.946  1.00  0.00     0.166 C 
HETATM    4  C   UNL     1      46.255  43.793  49.776  1.00  0.00     0.172 C 
HETATM    5  C   UNL     1      44.981  44.142  49.009  1.00  0.00     0.197 C 
HETATM    6  C   UNL     1      43.763  43.816  49.883  1.00  0.00     0.263 C 
ENDROOT
BRANCH   3   7
HETATM    7  C   UNL     1      44.793  44.975  53.214  1.00  0.00     0.178 C 
BRANCH   7   8
HETATM    8  S   UNL     1      45.669  44.366  54.618  1.00  0.00     0.118 S 
HETATM    9  O   UNL     1      46.898  45.158  54.600  1.00  0.00    -0.594 OA
HETATM   10  O   UNL     1      44.767  44.665  55.726  1.00  0.00    -0.594 OA
HETATM   11  O   UNL     1      45.843  42.948  54.324  1.00  0.00    -0.594 OA
ENDBRANCH   7   8
ENDBRANCH   3   7
BRANCH   2  12
HETATM   12  O   UNL     1      47.479  43.934  51.774  1.00  0.00    -0.380 OA
HETATM   13  H   UNL     1      48.077  44.699  51.982  1.00  0.00     0.211 HD
ENDBRANCH   2  12
BRANCH   6  14
HETATM   14  O   UNL     1      43.658  42.411  50.076  1.00  0.00    -0.359 OA
HETATM   15  H   UNL     1      44.490  42.166  50.519  1.00  0.00     0.213 HD
ENDBRANCH   6  14
BRANCH   4  16
HETATM   16  O   UNL     1      47.421  44.232  49.053  1.00  0.00    -0.380 OA
HETATM   17  H   UNL     1      47.706  43.429  48.568  1.00  0.00     0.211 HD
ENDBRANCH   4  16
BRANCH   5  18
HETATM   18  O   UNL     1      44.898  43.403  47.776  1.00  0.00    -0.378 OA
HETATM   19  H   UNL     1      45.746  42.922  47.711  1.00  0.00     0.211 HD
ENDBRANCH   5  18
TORSDOF 6
ENDMDL
MODEL 9
REMARK VINA RESULT:    -4.862      2.122      5.034
REMARK INTER + INTRA:          -6.440
REMARK INTER:                  -6.007
REMARK INTRA:                  -0.433
REMARK UNBOUND:                -0.441
REMARK  6 active torsions:
REMARK  status: ('A' for Active; 'I' for Inactive)
REMARK    1  A    between atoms: S_1  and  C_15 
REMARK    2  A    between atoms: O_3  and  C_10 
REMARK    3  A    between atoms: O_4  and  C_12 
REMARK    4  A    between atoms: O_5  and  C_13 
REMARK    5  A    between atoms: O_6  and  C_14 
REMARK    6  A    between atoms: C_11  and  C_15 
ROOT
HETATM    1  O   UNL     1      43.085  44.261  50.479  1.00  0.00    -0.328 OA
HETATM    2  C   UNL     1      44.782  42.956  51.695  1.00  0.00     0.168 C 
HETATM    3  C   UNL     1      44.500  43.940  50.534  1.00  0.00     0.166 C 
HETATM    4  C   UNL     1      44.175  43.471  53.013  1.00  0.00     0.172 C 
HETATM    5  C   UNL     1      42.703  43.851  52.855  1.00  0.00     0.197 C 
HETATM    6  C   UNL     1      42.558  44.813  51.669  1.00  0.00     0.263 C 
ENDROOT
BRANCH   3   7
HETATM    7  C   UNL     1      44.810  43.375  49.147  1.00  0.00     0.178 C 
BRANCH   7   8
HETATM    8  S   UNL     1      46.520  43.396  48.717  1.00  0.00     0.118 S 
HETATM    9  O   UNL     1      46.484  43.527  47.261  1.00  0.00    -0.594 OA
HETATM   10  O   UNL     1      47.024  44.570  49.422  1.00  0.00    -0.594 OA
HETATM   11  O   UNL     1      47.013  42.115  49.209  1.00  0.00    -0.594 OA
ENDBRANCH   7   8
ENDBRANCH   3   7
BRANCH   2  12
HETATM   12  O   UNL     1      46.164  42.742  52.001  1.00  0.00    -0.380 OA
HETATM   13  H   UNL     1      46.328  43.015  52.941  1.00  0.00     0.211 HD
ENDBRANCH   2  12
BRANCH   6  14
HETATM   14  O   UNL     1      43.190  46.053  51.961  1.00  0.00    -0.359 OA
HETATM   15  H   UNL     1      43.034  46.596  51.167  1.00  0.00     0.213 HD
ENDBRANCH   6  14
BRANCH   4  16
HETATM   16  O   UNL     1      44.331  42.446  54.014  1.00  0.00    -0.380 OA
HETATM   17  H   UNL     1      43.426  42.339  54.374  1.00  0.00     0.211 HD
ENDBRANCH   4  16
BRANCH   5  18
HETATM   18  O   UNL     1      42.199  44.481  54.048  1.00  0.00    -0.378 OA
HETATM   19  H   UNL     1      41.346  44.877  53.785  1.00  0.00     0.211 HD
ENDBRANCH   5  18
TORSDOF 6
ENDMDL
MODEL 10
REMARK VINA RESULT:    -4.757      2.598      4.017
REMARK INTER + INTRA:          -6.311
REMARK INTER:                  -5.929
REMARK INTRA:                  -0.382
REMARK UNBOUND:                -0.441
REMARK  6 active torsions:
REMARK  status: ('A' for Active; 'I' for Inactive)
REMARK    1  A    between atoms: S_1  and  C_15 
REMARK    2  A    between atoms: O_3  and  C_10 
REMARK    3  A    between atoms: O_4  and  C_12 
REMARK    4  A    between atoms: O_5  and  C_13 
REMARK    5  A    between atoms: O_6  and  C_14 
REMARK    6  A    between atoms: C_11  and  C_15 
ROOT
HETATM    1  O   UNL     1      47.537  41.780  50.678  1.00  0.00    -0.328 OA
HETATM    2  C   UNL     1      45.447  43.061  50.452  1.00  0.00     0.168 C 
HETATM    3  C   UNL     1      46.725  42.817  51.290  1.00  0.00     0.166 C 
HETATM    4  C   UNL     1      45.795  43.291  48.970  1.00  0.00     0.172 C 
HETATM    5  C   UNL     1      46.707  42.195  48.420  1.00  0.00     0.197 C 
HETATM    6  C   UNL     1      47.922  42.043  49.343  1.00  0.00     0.263 C 
ENDROOT
BRANCH   3   7
HETATM    7  C   UNL     1      46.456  42.297  52.702  1.00  0.00     0.178 C 
BRANCH   7   8
HETATM    8  S   UNL     1      46.471  43.540  53.953  1.00  0.00     0.118 S 
HETATM    9  O   UNL     1      46.654  44.770  53.182  1.00  0.00    -0.594 OA
HETATM   10  O   UNL     1      45.159  43.400  54.575  1.00  0.00    -0.594 OA
HETATM   11  O   UNL     1      47.602  43.166  54.795  1.00  0.00    -0.594 OA
ENDBRANCH   7   8
ENDBRANCH   3   7
BRANCH   2  12
HETATM   12  O   UNL     1      44.679  44.212  50.819  1.00  0.00    -0.380 OA
HETATM   13  H   UNL     1      44.101  44.466  50.053  1.00  0.00     0.211 HD
ENDBRANCH   2  12
BRANCH   6  14
HETATM   14  O   UNL     1      48.734  43.209  49.284  1.00  0.00    -0.359 OA
HETATM   15  H   UNL     1      49.371  43.097  50.012  1.00  0.00     0.213 HD
ENDBRANCH   6  14
BRANCH   4  16
HETATM   16  O   UNL     1      44.566  43.354  48.221  1.00  0.00    -0.380 OA
HETATM   17  H   UNL     1      44.796  42.926  47.369  1.00  0.00     0.211 HD
ENDBRANCH   4  16
BRANCH   5  18
HETATM   18  O   UNL     1      47.153  42.510  47.088  1.00  0.00    -0.378 OA
HETATM   19  H   UNL     1      47.974  41.996  46.966  1.00  0.00     0.211 HD
ENDBRANCH   5  18
TORSDOF 6
ENDMDL
