MODEL 1
REMARK VINA RESULT:    -6.078      0.000      0.000
REMARK INTER + INTRA:          -7.882
REMARK INTER:                  -7.501
REMARK INTRA:                  -0.381
REMARK UNBOUND:                -0.384
REMARK  6 active torsions:
REMARK  status: ('A' for Active; 'I' for Inactive)
REMARK    1  A    between atoms: S_1  and  C_15 
REMARK    2  A    between atoms: O_3  and  C_10 
REMARK    3  A    between atoms: O_4  and  C_12 
REMARK    4  A    between atoms: O_5  and  C_13 
REMARK    5  A    between atoms: O_6  and  C_14 
REMARK    6  A    between atoms: C_11  and  C_15 
ROOT
HETATM    1  O   UNL     1      42.791  44.896  49.524  1.00  0.00    -0.328 OA
HETATM    2  C   UNL     1      44.921  44.017  50.392  1.00  0.00     0.168 C 
HETATM    3  C   UNL     1      43.399  44.178  50.630  1.00  0.00     0.166 C 
HETATM    4  C   UNL     1      45.201  43.431  48.996  1.00  0.00     0.172 C 
HETATM    5  C   UNL     1      44.471  44.200  47.896  1.00  0.00     0.197 C 
HETATM    6  C   UNL     1      42.984  44.301  48.256  1.00  0.00     0.263 C 
ENDROOT
BRANCH   3   7
HETATM    7  C   UNL     1      43.045  45.014  51.860  1.00  0.00     0.178 C 
BRANCH   7   8
HETATM    8  S   UNL     1      42.448  44.078  53.231  1.00  0.00     0.118 S 
HETATM    9  O   UNL     1      43.219  42.839  53.135  1.00  0.00    -0.594 OA
HETATM   10  O   UNL     1      42.784  44.918  54.376  1.00  0.00    -0.594 OA
HETATM   11  O   UNL     1      41.022  43.941  52.957  1.00  0.00    -0.594 OA
ENDBRANCH   7   8
ENDBRANCH   3   7
BRANCH   2  12
HETATM   12  O   UNL     1      45.596  43.131  51.291  1.00  0.00    -0.380 OA
HETATM   13  H   UNL     1      46.003  43.668  52.020  1.00  0.00     0.211 HD
ENDBRANCH   2  12
BRANCH   6  14
HETATM   14  O   UNL     1      42.379  43.015  48.217  1.00  0.00    -0.359 OA
HETATM   15  H   UNL     1      42.861  42.543  47.515  1.00  0.00     0.213 HD
ENDBRANCH   6  14
BRANCH   4  16
HETATM   16  O   UNL     1      46.625  43.453  48.774  1.00  0.00    -0.380 OA
HETATM   17  H   UNL     1      46.791  42.626  48.276  1.00  0.00     0.211 HD
ENDBRANCH   4  16
BRANCH   5  18
HETATM   18  O   UNL     1      44.613  43.543  46.622  1.00  0.00    -0.378 OA
HETATM   19  H   UNL     1      45.576  43.455  46.488  1.00  0.00     0.211 HD
ENDBRANCH   5  18
TORSDOF 6
ENDMDL
MODEL 2
REMARK VINA RESULT:    -6.005      1.294      2.888
REMARK INTER + INTRA:          -7.793
REMARK INTER:                  -7.409
REMARK INTRA:                  -0.384
REMARK UNBOUND:                -0.384
REMARK  6 active torsions:
REMARK  status: ('A' for Active; 'I' for Inactive)
REMARK    1  A    between atoms: S_1  and  C_15 
REMARK    2  A    between atoms: O_3  and  C_10 
REMARK    3  A    between atoms: O_4  and  C_12 
REMARK    4  A    between atoms: O_5  and  C_13 
REMARK    5  A    between atoms: O_6  and  C_14 
REMARK    6  A    between atoms: C_11  and  C_15 
ROOT
HETATM    1  O   UNL     1      45.873  43.123  50.128  1.00  0.00    -0.328 OA
HETATM    2  C   UNL     1      43.722  43.820  49.152  1.00  0.00     0.168 C 
HETATM    3  C   UNL     1      44.695  43.944  50.350  1.00  0.00     0.166 C 
HETATM    4  C   UNL     1      44.454  44.070  47.820  1.00  0.00     0.172 C 
HETATM    5  C   UNL     1      45.718  43.220  47.693  1.00  0.00     0.197 C 
HETATM    6  C   UNL     1      46.584  43.420  48.943  1.00  0.00     0.263 C 
ENDROOT
BRANCH   3   7
HETATM    7  C   UNL     1      44.125  43.430  51.672  1.00  0.00     0.178 C 
BRANCH   7   8
HETATM    8  S   UNL     1      42.966  44.518  52.438  1.00  0.00     0.118 S 
HETATM    9  O   UNL     1      43.237  45.794  51.777  1.00  0.00    -0.594 OA
HETATM   10  O   UNL     1      41.679  43.918  52.102  1.00  0.00    -0.594 OA
HETATM   11  O   UNL     1      43.328  44.465  53.850  1.00  0.00    -0.594 OA
ENDBRANCH   7   8
ENDBRANCH   3   7
BRANCH   2  12
HETATM   12  O   UNL     1      42.636  44.752  49.140  1.00  0.00    -0.380 OA
HETATM   13  H   UNL     1      42.019  44.512  48.400  1.00  0.00     0.211 HD
ENDBRANCH   2  12
BRANCH   6  14
HETATM   14  O   UNL     1      47.084  44.751  48.987  1.00  0.00    -0.359 OA
HETATM   15  H   UNL     1      46.747  45.107  49.829  1.00  0.00     0.213 HD
ENDBRANCH   6  14
BRANCH   4  16
HETATM   16  O   UNL     1      43.541  43.787  46.742  1.00  0.00    -0.380 OA
HETATM   17  H   UNL     1      42.757  44.337  46.956  1.00  0.00     0.211 HD
ENDBRANCH   4  16
BRANCH   5  18
HETATM   18  O   UNL     1      46.472  43.584  46.523  1.00  0.00    -0.378 OA
HETATM   19  H   UNL     1      46.929  44.413  46.762  1.00  0.00     0.211 HD
ENDBRANCH   5  18
TORSDOF 6
ENDMDL
MODEL 3
REMARK VINA RESULT:    -5.861      2.264      2.782
REMARK INTER + INTRA:          -7.615
REMARK INTER:                  -7.181
REMARK INTRA:                  -0.434
REMARK UNBOUND:                -0.384
REMARK  6 active torsions:
REMARK  status: ('A' for Active; 'I' for Inactive)
REMARK    1  A    between atoms: S_1  and  C_15 
REMARK    2  A    between atoms: O_3  and  C_10 
REMARK    3  A    between atoms: O_4  and  C_12 
REMARK    4  A    between atoms: O_5  and  C_13 
REMARK    5  A    between atoms: O_6  and  C_14 
REMARK    6  A    between atoms: C_11  and  C_15 
ROOT
HETATM    1  O   UNL     1      43.986  44.448  49.580  1.00  0.00    -0.328 OA
HETATM    2  C   UNL     1      46.034  43.348  48.767  1.00  0.00     0.168 C 
HETATM    3  C   UNL     1      44.962  43.415  49.882  1.00  0.00     0.166 C 
HETATM    4  C   UNL     1      45.379  43.245  47.378  1.00  0.00     0.172 C 
HETATM    5  C   UNL     1      44.317  44.323  47.164  1.00  0.00     0.197 C 
HETATM    6  C   UNL     1      43.330  44.294  48.337  1.00  0.00     0.263 C 
ENDROOT
BRANCH   3   7
HETATM    7  C   UNL     1      45.511  43.809  51.253  1.00  0.00     0.178 C 
BRANCH   7   8
HETATM    8  S   UNL     1      45.866  42.446  52.315  1.00  0.00     0.118 S 
HETATM    9  O   UNL     1      44.792  41.505  52.001  1.00  0.00    -0.594 OA
HETATM   10  O   UNL     1      47.193  42.025  51.879  1.00  0.00    -0.594 OA
HETATM   11  O   UNL     1      45.807  43.028  53.651  1.00  0.00    -0.594 OA
ENDBRANCH   7   8
ENDBRANCH   3   7
BRANCH   2  12
HETATM   12  O   UNL     1      46.918  42.224  48.828  1.00  0.00    -0.380 OA
HETATM   13  H   UNL     1      46.775  41.754  49.690  1.00  0.00     0.211 HD
ENDBRANCH   2  12
BRANCH   6  14
HETATM   14  O   UNL     1      42.581  43.085  48.321  1.00  0.00    -0.359 OA
HETATM   15  H   UNL     1      41.903  43.212  49.009  1.00  0.00     0.213 HD
ENDBRANCH   6  14
BRANCH   4  16
HETATM   16  O   UNL     1      46.414  43.345  46.381  1.00  0.00    -0.380 OA
HETATM   17  H   UNL     1      46.404  44.295  46.136  1.00  0.00     0.211 HD
ENDBRANCH   4  16
BRANCH   5  18
HETATM   18  O   UNL     1      43.604  44.112  45.931  1.00  0.00    -0.378 OA
HETATM   19  H   UNL     1      44.063  43.366  45.497  1.00  0.00     0.211 HD
ENDBRANCH   5  18
TORSDOF 6
ENDMDL
MODEL 4
REMARK VINA RESULT:    -5.462      1.588      2.968
REMARK INTER + INTRA:          -7.122
REMARK INTER:                  -6.694
REMARK INTRA:                  -0.428
REMARK UNBOUND:                -0.384
REMARK  6 active torsions:
REMARK  status: ('A' for Active; 'I' for Inactive)
REMARK    1  A    between atoms: S_1  and  C_15 
REMARK    2  A    between atoms: O_3  and  C_10 
REMARK    3  A    between atoms: O_4  and  C_12 
REMARK    4  A    between atoms: O_5  and  C_13 
REMARK    5  A    between atoms: O_6  and  C_14 
REMARK    6  A    between atoms: C_11  and  C_15 
ROOT
HETATM    1  O   UNL     1      46.261  43.449  50.849  1.00  0.00    -0.328 OA
HETATM    2  C   UNL     1      43.820  43.710  50.652  1.00  0.00     0.168 C 
HETATM    3  C   UNL     1      45.114  44.178  51.362  1.00  0.00     0.166 C 
HETATM    4  C   UNL     1      43.988  43.745  49.122  1.00  0.00     0.172 C 
HETATM    5  C   UNL     1      45.253  43.017  48.668  1.00  0.00     0.197 C 
HETATM    6  C   UNL     1      46.454  43.559  49.453  1.00  0.00     0.263 C 
ENDROOT
BRANCH   3   7
HETATM    7  C   UNL     1      45.136  43.900  52.865  1.00  0.00     0.178 C 
BRANCH   7   8
HETATM    8  S   UNL     1      44.457  45.192  53.856  1.00  0.00     0.118 S 
HETATM    9  O   UNL     1      43.032  44.868  53.876  1.00  0.00    -0.594 OA
HETATM   10  O   UNL     1      45.139  45.022  55.134  1.00  0.00    -0.594 OA
HETATM   11  O   UNL     1      44.805  46.404  53.122  1.00  0.00    -0.594 OA
ENDBRANCH   7   8
ENDBRANCH   3   7
BRANCH   2  12
HETATM   12  O   UNL     1      42.658  44.507  50.900  1.00  0.00    -0.380 OA
HETATM   13  H   UNL     1      42.822  45.424  50.557  1.00  0.00     0.211 HD
ENDBRANCH   2  12
BRANCH   6  14
HETATM   14  O   UNL     1      46.705  44.913  49.094  1.00  0.00    -0.359 OA
HETATM   15  H   UNL     1      45.951  45.156  48.528  1.00  0.00     0.213 HD
ENDBRANCH   6  14
BRANCH   4  16
HETATM   16  O   UNL     1      42.818  43.154  48.524  1.00  0.00    -0.380 OA
HETATM   17  H   UNL     1      42.914  42.200  48.730  1.00  0.00     0.211 HD
ENDBRANCH   4  16
BRANCH   5  18
HETATM   18  O   UNL     1      45.479  43.199  47.258  1.00  0.00    -0.378 OA
HETATM   19  H   UNL     1      44.879  42.564  46.821  1.00  0.00     0.211 HD
ENDBRANCH   5  18
TORSDOF 6
ENDMDL
MODEL 5
REMARK VINA RESULT:    -5.386      1.691      3.245
REMARK INTER + INTRA:          -7.029
REMARK INTER:                  -6.877
REMARK INTRA:                  -0.151
REMARK UNBOUND:                -0.384
REMARK  6 active torsions:
REMARK  status: ('A' for Active; 'I' for Inactive)
REMARK    1  A    between atoms: S_1  and  C_15 
REMARK    2  A    between atoms: O_3  and  C_10 
REMARK    3  A    between atoms: O_4  and  C_12 
REMARK    4  A    between atoms: O_5  and  C_13 
REMARK    5  A    between atoms: O_6  and  C_14 
REMARK    6  A    between atoms: C_11  and  C_15 
ROOT
HETATM    1  O   UNL     1      45.957  43.265  51.433  1.00  0.00    -0.328 OA
HETATM    2  C   UNL     1      45.181  43.094  49.102  1.00  0.00     0.168 C 
HETATM    3  C   UNL     1      44.912  43.676  50.511  1.00  0.00     0.166 C 
HETATM    4  C   UNL     1      46.618  43.404  48.644  1.00  0.00     0.172 C 
HETATM    5  C   UNL     1      47.653  43.006  49.696  1.00  0.00     0.197 C 
HETATM    6  C   UNL     1      47.265  43.631  51.042  1.00  0.00     0.263 C 
ENDROOT
BRANCH   3   7
HETATM    7  C   UNL     1      43.622  43.171  51.159  1.00  0.00     0.178 C 
BRANCH   7   8
HETATM    8  S   UNL     1      42.912  44.281  52.331  1.00  0.00     0.118 S 
HETATM    9  O   UNL     1      43.683  44.006  53.543  1.00  0.00    -0.594 OA
HETATM   10  O   UNL     1      43.157  45.591  51.736  1.00  0.00    -0.594 OA
HETATM   11  O   UNL     1      41.512  43.874  52.384  1.00  0.00    -0.594 OA
ENDBRANCH   7   8
ENDBRANCH   3   7
BRANCH   2  12
HETATM   12  O   UNL     1      44.356  43.610  48.054  1.00  0.00    -0.380 OA
HETATM   13  H   UNL     1      43.865  44.402  48.395  1.00  0.00     0.211 HD
ENDBRANCH   2  12
BRANCH   6  14
HETATM   14  O   UNL     1      47.385  45.047  50.980  1.00  0.00    -0.359 OA
HETATM   15  H   UNL     1      48.141  45.199  50.386  1.00  0.00     0.213 HD
ENDBRANCH   6  14
BRANCH   4  16
HETATM   16  O   UNL     1      46.859  42.707  47.406  1.00  0.00    -0.380 OA
HETATM   17  H   UNL     1      46.326  41.889  47.497  1.00  0.00     0.211 HD
ENDBRANCH   4  16
BRANCH   5  18
HETATM   18  O   UNL     1      48.970  43.450  49.323  1.00  0.00    -0.378 OA
HETATM   19  H   UNL     1      48.840  43.978  48.511  1.00  0.00     0.211 HD
ENDBRANCH   5  18
TORSDOF 6
ENDMDL
MODEL 6
REMARK VINA RESULT:    -5.252      2.598      5.164
REMARK INTER + INTRA:          -6.863
REMARK INTER:                  -6.431
REMARK INTRA:                  -0.433
REMARK UNBOUND:                -0.384
REMARK  6 active torsions:
REMARK  status: ('A' for Active; 'I' for Inactive)
REMARK    1  A    between atoms: S_1  and  C_15 
REMARK    2  A    between atoms: O_3  and  C_10 
REMARK    3  A    between atoms: O_4  and  C_12 
REMARK    4  A    between atoms: O_5  and  C_13 
REMARK    5  A    between atoms: O_6  and  C_14 
REMARK    6  A    between atoms: C_11  and  C_15 
ROOT
HETATM    1  O   UNL     1      44.259  42.663  51.072  1.00  0.00    -0.328 OA
HETATM    2  C   UNL     1      46.045  44.273  51.607  1.00  0.00     0.168 C 
HETATM    3  C   UNL     1      45.415  43.356  50.530  1.00  0.00     0.166 C 
HETATM    4  C   UNL     1      44.979  45.180  52.249  1.00  0.00     0.172 C 
HETATM    5  C   UNL     1      43.766  44.385  52.732  1.00  0.00     0.197 C 
HETATM    6  C   UNL     1      43.249  43.511  51.583  1.00  0.00     0.263 C 
ENDROOT
BRANCH   3   7
HETATM    7  C   UNL     1      46.335  42.232  50.053  1.00  0.00     0.178 C 
BRANCH   7   8
HETATM    8  S   UNL     1      47.328  42.647  48.655  1.00  0.00     0.118 S 
HETATM    9  O   UNL     1      46.444  43.515  47.878  1.00  0.00    -0.594 OA
HETATM   10  O   UNL     1      48.475  43.322  49.254  1.00  0.00    -0.594 OA
HETATM   11  O   UNL     1      47.617  41.354  48.045  1.00  0.00    -0.594 OA
ENDBRANCH   7   8
ENDBRANCH   3   7
BRANCH   2  12
HETATM   12  O   UNL     1      47.046  45.181  51.136  1.00  0.00    -0.380 OA
HETATM   13  H   UNL     1      47.005  45.213  50.145  1.00  0.00     0.211 HD
ENDBRANCH   2  12
BRANCH   6  14
HETATM   14  O   UNL     1      42.718  44.326  50.545  1.00  0.00    -0.359 OA
HETATM   15  H   UNL     1      42.824  45.236  50.875  1.00  0.00     0.213 HD
ENDBRANCH   6  14
BRANCH   4  16
HETATM   16  O   UNL     1      45.590  45.890  53.344  1.00  0.00    -0.380 OA
HETATM   17  H   UNL     1      44.997  45.698  54.101  1.00  0.00     0.211 HD
ENDBRANCH   4  16
BRANCH   5  18
HETATM   18  O   UNL     1      42.715  45.261  53.179  1.00  0.00    -0.378 OA
HETATM   19  H   UNL     1      41.957  44.674  53.365  1.00  0.00     0.211 HD
ENDBRANCH   5  18
TORSDOF 6
ENDMDL
MODEL 7
REMARK VINA RESULT:    -5.097      2.373      5.548
REMARK INTER + INTRA:          -6.673
REMARK INTER:                  -6.463
REMARK INTRA:                  -0.209
REMARK UNBOUND:                -0.384
REMARK  6 active torsions:
REMARK  status: ('A' for Active; 'I' for Inactive)
REMARK    1  A    between atoms: S_1  and  C_15 
REMARK    2  A    between atoms: O_3  and  C_10 
REMARK    3  A    between atoms: O_4  and  C_12 
REMARK    4  A    between atoms: O_5  and  C_13 
REMARK    5  A    between atoms: O_6  and  C_14 
REMARK    6  A    between atoms: C_11  and  C_15 
ROOT
HETATM    1  O   UNL     1      45.960  43.513  51.539  1.00  0.00    -0.328 OA
HETATM    2  C   UNL     1      43.716  43.573  50.527  1.00  0.00     0.168 C 
HETATM    3  C   UNL     1      45.177  43.079  50.395  1.00  0.00     0.166 C 
HETATM    4  C   UNL     1      43.131  43.199  51.902  1.00  0.00     0.172 C 
HETATM    5  C   UNL     1      44.045  43.628  53.049  1.00  0.00     0.197 C 
HETATM    6  C   UNL     1      45.459  43.091  52.791  1.00  0.00     0.263 C 
ENDROOT
BRANCH   3   7
HETATM    7  C   UNL     1      45.924  43.655  49.191  1.00  0.00     0.178 C 
BRANCH   7   8
HETATM    8  S   UNL     1      47.155  42.586  48.518  1.00  0.00     0.118 S 
HETATM    9  O   UNL     1      46.882  42.644  47.082  1.00  0.00    -0.594 OA
HETATM   10  O   UNL     1      48.403  43.221  48.927  1.00  0.00    -0.594 OA
HETATM   11  O   UNL     1      46.875  41.301  49.149  1.00  0.00    -0.594 OA
ENDBRANCH   7   8
ENDBRANCH   3   7
BRANCH   2  12
HETATM   12  O   UNL     1      42.791  43.021  49.586  1.00  0.00    -0.380 OA
HETATM   13  H   UNL     1      42.329  43.766  49.119  1.00  0.00     0.211 HD
ENDBRANCH   2  12
BRANCH   6  14
HETATM   14  O   UNL     1      45.469  41.671  52.874  1.00  0.00    -0.359 OA
HETATM   15  H   UNL     1      45.768  41.485  53.782  1.00  0.00     0.213 HD
ENDBRANCH   6  14
BRANCH   4  16
HETATM   16  O   UNL     1      41.836  43.818  52.025  1.00  0.00    -0.380 OA
HETATM   17  H   UNL     1      41.217  43.057  52.020  1.00  0.00     0.211 HD
ENDBRANCH   4  16
BRANCH   5  18
HETATM   18  O   UNL     1      43.565  43.128  54.310  1.00  0.00    -0.378 OA
HETATM   19  H   UNL     1      43.768  43.833  54.956  1.00  0.00     0.211 HD
ENDBRANCH   5  18
TORSDOF 6
ENDMDL
MODEL 8
REMARK VINA RESULT:    -5.023      2.132      5.012
REMARK INTER + INTRA:          -6.581
REMARK INTER:                  -6.114
REMARK INTRA:                  -0.467
REMARK UNBOUND:                -0.384
REMARK  6 active torsions:
REMARK  status: ('A' for Active; 'I' for Inactive)
REMARK    1  A    between atoms: S_1  and  C_15 
REMARK    2  A    between atoms: O_3  and  C_10 
REMARK    3  A    between atoms: O_4  and  C_12 
REMARK    4  A    between atoms: O_5  and  C_13 
REMARK    5  A    between atoms: O_6  and  C_14 
REMARK    6  A    between atoms: C_11  and  C_15 
ROOT
HETATM    1  O   UNL     1      43.022  44.220  50.551  1.00  0.00    -0.328 OA
HETATM    2  C   UNL     1      45.000  43.117  51.518  1.00  0.00     0.168 C 
HETATM    3  C   UNL     1      44.447  44.004  50.375  1.00  0.00     0.166 C 
HETATM    4  C   UNL     1      44.586  43.671  52.894  1.00  0.00     0.172 C 
HETATM    5  C   UNL     1      43.083  43.937  52.976  1.00  0.00     0.197 C 
HETATM    6  C   UNL     1      42.662  44.808  51.786  1.00  0.00     0.263 C 
ENDROOT
BRANCH   3   7
HETATM    7  C   UNL     1      44.561  43.374  48.987  1.00  0.00     0.178 C 
BRANCH   7   8
HETATM    8  S   UNL     1      46.178  43.444  48.285  1.00  0.00     0.118 S 
HETATM    9  O   UNL     1      45.903  43.576  46.855  1.00  0.00    -0.594 OA
HETATM   10  O   UNL     1      46.757  44.630  48.907  1.00  0.00    -0.594 OA
HETATM   11  O   UNL     1      46.780  42.177  48.684  1.00  0.00    -0.594 OA
ENDBRANCH   7   8
ENDBRANCH   3   7
BRANCH   2  12
HETATM   12  O   UNL     1      46.426  43.021  51.589  1.00  0.00    -0.380 OA
HETATM   13  H   UNL     1      46.736  43.484  52.411  1.00  0.00     0.211 HD
ENDBRANCH   2  12
BRANCH   6  14
HETATM   14  O   UNL     1      43.233  46.105  51.899  1.00  0.00    -0.359 OA
HETATM   15  H   UNL     1      42.685  46.552  52.569  1.00  0.00     0.213 HD
ENDBRANCH   6  14
BRANCH   4  16
HETATM   16  O   UNL     1      44.992  42.726  53.903  1.00  0.00    -0.380 OA
HETATM   17  H   UNL     1      45.187  43.291  54.680  1.00  0.00     0.211 HD
ENDBRANCH   4  16
BRANCH   5  18
HETATM   18  O   UNL     1      42.740  44.603  54.204  1.00  0.00    -0.378 OA
HETATM   19  H   UNL     1      41.779  44.767  54.144  1.00  0.00     0.211 HD
ENDBRANCH   5  18
TORSDOF 6
ENDMDL
MODEL 9
REMARK VINA RESULT:    -4.758      1.875      2.111
REMARK INTER + INTRA:          -6.255
REMARK INTER:                  -5.881
REMARK INTRA:                  -0.373
REMARK UNBOUND:                -0.384
REMARK  6 active torsions:
REMARK  status: ('A' for Active; 'I' for Inactive)
REMARK    1  A    between atoms: S_1  and  C_15 
REMARK    2  A    between atoms: O_3  and  C_10 
REMARK    3  A    between atoms: O_4  and  C_12 
REMARK    4  A    between atoms: O_5  and  C_13 
REMARK    5  A    between atoms: O_6  and  C_14 
REMARK    6  A    between atoms: C_11  and  C_15 
ROOT
HETATM    1  O   UNL     1      43.347  44.249  51.234  1.00  0.00    -0.328 OA
HETATM    2  C   UNL     1      45.673  44.783  51.841  1.00  0.00     0.168 C 
HETATM    3  C   UNL     1      44.323  44.187  52.309  1.00  0.00     0.166 C 
HETATM    4  C   UNL     1      46.122  44.152  50.510  1.00  0.00     0.172 C 
HETATM    5  C   UNL     1      45.017  44.195  49.455  1.00  0.00     0.197 C 
HETATM    6  C   UNL     1      43.736  43.592  50.045  1.00  0.00     0.263 C 
ENDROOT
BRANCH   3   7
HETATM    7  C   UNL     1      43.666  44.955  53.456  1.00  0.00     0.178 C 
BRANCH   7   8
HETATM    8  S   UNL     1      43.780  44.159  55.025  1.00  0.00     0.118 S 
HETATM    9  O   UNL     1      44.971  43.324  54.877  1.00  0.00    -0.594 OA
HETATM   10  O   UNL     1      43.929  45.275  55.953  1.00  0.00    -0.594 OA
HETATM   11  O   UNL     1      42.522  43.427  55.130  1.00  0.00    -0.594 OA
ENDBRANCH   7   8
ENDBRANCH   3   7
BRANCH   2  12
HETATM   12  O   UNL     1      46.779  44.573  52.724  1.00  0.00    -0.380 OA
HETATM   13  H   UNL     1      47.141  45.456  52.997  1.00  0.00     0.211 HD
ENDBRANCH   2  12
BRANCH   6  14
HETATM   14  O   UNL     1      43.912  42.201  50.283  1.00  0.00    -0.359 OA
HETATM   15  H   UNL     1      44.160  42.147  51.224  1.00  0.00     0.213 HD
ENDBRANCH   6  14
BRANCH   4  16
HETATM   16  O   UNL     1      47.293  44.853  50.049  1.00  0.00    -0.380 OA
HETATM   17  H   UNL     1      47.942  44.136  49.889  1.00  0.00     0.211 HD
ENDBRANCH   4  16
BRANCH   5  18
HETATM   18  O   UNL     1      45.396  43.459  48.277  1.00  0.00    -0.378 OA
HETATM   19  H   UNL     1      46.282  43.796  48.041  1.00  0.00     0.211 HD
ENDBRANCH   5  18
TORSDOF 6
ENDMDL
MODEL 10
REMARK VINA RESULT:    -4.633      2.494      3.035
REMARK INTER + INTRA:          -6.099
REMARK INTER:                  -5.665
REMARK INTRA:                  -0.434
REMARK UNBOUND:                -0.384
REMARK  6 active torsions:
REMARK  status: ('A' for Active; 'I' for Inactive)
REMARK    1  A    between atoms: S_1  and  C_15 
REMARK    2  A    between atoms: O_3  and  C_10 
REMARK    3  A    between atoms: O_4  and  C_12 
REMARK    4  A    between atoms: O_5  and  C_13 
REMARK    5  A    between atoms: O_6  and  C_14 
REMARK    6  A    between atoms: C_11  and  C_15 
ROOT
HETATM    1  O   UNL     1      44.216  43.985  51.631  1.00  0.00    -0.328 OA
HETATM    2  C   UNL     1      46.665  44.056  51.386  1.00  0.00     0.168 C 
HETATM    3  C   UNL     1      45.469  43.603  52.259  1.00  0.00     0.166 C 
HETATM    4  C   UNL     1      46.492  43.589  49.929  1.00  0.00     0.172 C 
HETATM    5  C   UNL     1      45.123  43.969  49.365  1.00  0.00     0.197 C 
HETATM    6  C   UNL     1      44.032  43.479  50.324  1.00  0.00     0.263 C 
ENDROOT
BRANCH   3   7
HETATM    7  C   UNL     1      45.415  44.264  53.636  1.00  0.00     0.178 C 
BRANCH   7   8
HETATM    8  S   UNL     1      46.151  43.317  54.929  1.00  0.00     0.118 S 
HETATM    9  O   UNL     1      45.834  41.943  54.542  1.00  0.00    -0.594 OA
HETATM   10  O   UNL     1      47.564  43.667  54.832  1.00  0.00    -0.594 OA
HETATM   11  O   UNL     1      45.474  43.793  56.130  1.00  0.00    -0.594 OA
ENDBRANCH   7   8
ENDBRANCH   3   7
BRANCH   2  12
HETATM   12  O   UNL     1      47.942  43.540  51.775  1.00  0.00    -0.380 OA
HETATM   13  H   UNL     1      48.315  43.012  51.021  1.00  0.00     0.211 HD
ENDBRANCH   2  12
BRANCH   6  14
HETATM   14  O   UNL     1      43.997  42.057  50.346  1.00  0.00    -0.359 OA
HETATM   15  H   UNL     1      43.177  41.843  50.825  1.00  0.00     0.213 HD
ENDBRANCH   6  14
BRANCH   4  16
HETATM   16  O   UNL     1      47.547  44.170  49.139  1.00  0.00    -0.380 OA
HETATM   17  H   UNL     1      48.291  43.541  49.251  1.00  0.00     0.211 HD
ENDBRANCH   4  16
BRANCH   5  18
HETATM   18  O   UNL     1      44.918  43.385  48.065  1.00  0.00    -0.378 OA
HETATM   19  H   UNL     1      45.785  43.446  47.620  1.00  0.00     0.211 HD
ENDBRANCH   5  18
TORSDOF 6
ENDMDL
