MODEL 1
REMARK VINA RESULT:    -6.089      0.000      0.000
REMARK INTER + INTRA:          -7.935
REMARK INTER:                  -7.536
REMARK INTRA:                  -0.398
REMARK UNBOUND:                -0.421
REMARK  6 active torsions:
REMARK  status: ('A' for Active; 'I' for Inactive)
REMARK    1  A    between atoms: S_1  and  C_15 
REMARK    2  A    between atoms: O_3  and  C_10 
REMARK    3  A    between atoms: O_4  and  C_12 
REMARK    4  A    between atoms: O_5  and  C_13 
REMARK    5  A    between atoms: O_6  and  C_14 
REMARK    6  A    between atoms: C_11  and  C_15 
ROOT
HETATM    1  O   UNL     1      42.891  44.842  49.550  1.00  0.00    -0.328 OA
HETATM    2  C   UNL     1      44.937  43.780  50.415  1.00  0.00     0.168 C 
HETATM    3  C   UNL     1      43.423  44.024  50.627  1.00  0.00     0.166 C 
HETATM    4  C   UNL     1      45.217  43.256  48.994  1.00  0.00     0.172 C 
HETATM    5  C   UNL     1      44.566  44.131  47.923  1.00  0.00     0.197 C 
HETATM    6  C   UNL     1      43.079  44.308  48.255  1.00  0.00     0.263 C 
ENDROOT
BRANCH   3   7
HETATM    7  C   UNL     1      43.090  44.812  51.894  1.00  0.00     0.178 C 
BRANCH   7   8
HETATM    8  S   UNL     1      42.326  43.856  53.165  1.00  0.00     0.118 S 
HETATM    9  O   UNL     1      42.225  44.811  54.269  1.00  0.00    -0.594 OA
HETATM   10  O   UNL     1      41.049  43.475  52.570  1.00  0.00    -0.594 OA
HETATM   11  O   UNL     1      43.264  42.760  53.381  1.00  0.00    -0.594 OA
ENDBRANCH   7   8
ENDBRANCH   3   7
BRANCH   2  12
HETATM   12  O   UNL     1      45.531  42.803  51.276  1.00  0.00    -0.380 OA
HETATM   13  H   UNL     1      44.870  42.082  51.442  1.00  0.00     0.211 HD
ENDBRANCH   2  12
BRANCH   6  14
HETATM   14  O   UNL     1      42.396  43.067  48.128  1.00  0.00    -0.359 OA
HETATM   15  H   UNL     1      43.040  42.481  47.692  1.00  0.00     0.213 HD
ENDBRANCH   6  14
BRANCH   4  16
HETATM   16  O   UNL     1      46.644  43.199  48.806  1.00  0.00    -0.380 OA
HETATM   17  H   UNL     1      46.876  42.289  49.087  1.00  0.00     0.211 HD
ENDBRANCH   4  16
BRANCH   5  18
HETATM   18  O   UNL     1      44.700  43.540  46.618  1.00  0.00    -0.378 OA
HETATM   19  H   UNL     1      45.541  43.043  46.649  1.00  0.00     0.211 HD
ENDBRANCH   5  18
TORSDOF 6
ENDMDL
MODEL 2
REMARK VINA RESULT:    -5.966      1.297      2.855
REMARK INTER + INTRA:          -7.782
REMARK INTER:                  -7.361
REMARK INTRA:                  -0.421
REMARK UNBOUND:                -0.421
REMARK  6 active torsions:
REMARK  status: ('A' for Active; 'I' for Inactive)
REMARK    1  A    between atoms: S_1  and  C_15 
REMARK    2  A    between atoms: O_3  and  C_10 
REMARK    3  A    between atoms: O_4  and  C_12 
REMARK    4  A    between atoms: O_5  and  C_13 
REMARK    5  A    between atoms: O_6  and  C_14 
REMARK    6  A    between atoms: C_11  and  C_15 
ROOT
HETATM    1  O   UNL     1      45.762  42.958  50.141  1.00  0.00    -0.328 OA
HETATM    2  C   UNL     1      43.673  43.785  49.133  1.00  0.00     0.168 C 
HETATM    3  C   UNL     1      44.598  43.795  50.375  1.00  0.00     0.166 C 
HETATM    4  C   UNL     1      44.466  44.107  47.853  1.00  0.00     0.172 C 
HETATM    5  C   UNL     1      45.711  43.232  47.716  1.00  0.00     0.197 C 
HETATM    6  C   UNL     1      46.530  43.317  49.010  1.00  0.00     0.263 C 
ENDROOT
BRANCH   3   7
HETATM    7  C   UNL     1      43.959  43.205  51.633  1.00  0.00     0.178 C 
BRANCH   7   8
HETATM    8  S   UNL     1      42.834  44.287  52.455  1.00  0.00     0.118 S 
HETATM    9  O   UNL     1      41.530  43.777  52.032  1.00  0.00    -0.594 OA
HETATM   10  O   UNL     1      43.143  44.076  53.865  1.00  0.00    -0.594 OA
HETATM   11  O   UNL     1      43.181  45.603  51.932  1.00  0.00    -0.594 OA
ENDBRANCH   7   8
ENDBRANCH   3   7
BRANCH   2  12
HETATM   12  O   UNL     1      42.613  44.747  49.146  1.00  0.00    -0.380 OA
HETATM   13  H   UNL     1      42.904  45.547  48.636  1.00  0.00     0.211 HD
ENDBRANCH   2  12
BRANCH   6  14
HETATM   14  O   UNL     1      47.062  44.626  49.171  1.00  0.00    -0.359 OA
HETATM   15  H   UNL     1      47.506  44.601  50.037  1.00  0.00     0.213 HD
ENDBRANCH   6  14
BRANCH   4  16
HETATM   16  O   UNL     1      43.592  43.929  46.722  1.00  0.00    -0.380 OA
HETATM   17  H   UNL     1      43.247  43.019  46.841  1.00  0.00     0.211 HD
ENDBRANCH   4  16
BRANCH   5  18
HETATM   18  O   UNL     1      46.524  43.656  46.606  1.00  0.00    -0.378 OA
HETATM   19  H   UNL     1      46.099  44.472  46.277  1.00  0.00     0.211 HD
ENDBRANCH   5  18
TORSDOF 6
ENDMDL
MODEL 3
REMARK VINA RESULT:    -5.802      2.321      2.925
REMARK INTER + INTRA:          -7.580
REMARK INTER:                  -7.152
REMARK INTRA:                  -0.428
REMARK UNBOUND:                -0.421
REMARK  6 active torsions:
REMARK  status: ('A' for Active; 'I' for Inactive)
REMARK    1  A    between atoms: S_1  and  C_15 
REMARK    2  A    between atoms: O_3  and  C_10 
REMARK    3  A    between atoms: O_4  and  C_12 
REMARK    4  A    between atoms: O_5  and  C_13 
REMARK    5  A    between atoms: O_6  and  C_14 
REMARK    6  A    between atoms: C_11  and  C_15 
ROOT
HETATM    1  O   UNL     1      44.070  44.424  49.580  1.00  0.00    -0.328 OA
HETATM    2  C   UNL     1      46.088  43.347  48.668  1.00  0.00     0.168 C 
HETATM    3  C   UNL     1      45.058  43.387  49.823  1.00  0.00     0.166 C 
HETATM    4  C   UNL     1      45.380  43.271  47.302  1.00  0.00     0.172 C 
HETATM    5  C   UNL     1      44.309  44.351  47.152  1.00  0.00     0.197 C 
HETATM    6  C   UNL     1      43.367  44.295  48.360  1.00  0.00     0.263 C 
ENDROOT
BRANCH   3   7
HETATM    7  C   UNL     1      45.658  43.754  51.181  1.00  0.00     0.178 C 
BRANCH   7   8
HETATM    8  S   UNL     1      45.980  42.374  52.231  1.00  0.00     0.118 S 
HETATM    9  O   UNL     1      44.808  41.527  52.019  1.00  0.00    -0.594 OA
HETATM   10  O   UNL     1      47.227  41.835  51.696  1.00  0.00    -0.594 OA
HETATM   11  O   UNL     1      46.080  42.970  53.559  1.00  0.00    -0.594 OA
ENDBRANCH   7   8
ENDBRANCH   3   7
BRANCH   2  12
HETATM   12  O   UNL     1      46.975  42.224  48.671  1.00  0.00    -0.380 OA
HETATM   13  H   UNL     1      47.835  42.497  48.257  1.00  0.00     0.211 HD
ENDBRANCH   2  12
BRANCH   6  14
HETATM   14  O   UNL     1      42.620  43.085  48.347  1.00  0.00    -0.359 OA
HETATM   15  H   UNL     1      42.972  42.576  49.099  1.00  0.00     0.213 HD
ENDBRANCH   6  14
BRANCH   4  16
HETATM   16  O   UNL     1      46.376  43.395  46.269  1.00  0.00    -0.380 OA
HETATM   17  H   UNL     1      47.203  43.108  46.712  1.00  0.00     0.211 HD
ENDBRANCH   4  16
BRANCH   5  18
HETATM   18  O   UNL     1      43.550  44.164  45.943  1.00  0.00    -0.378 OA
HETATM   19  H   UNL     1      42.837  44.831  45.985  1.00  0.00     0.211 HD
ENDBRANCH   5  18
TORSDOF 6
ENDMDL
MODEL 4
REMARK VINA RESULT:    -5.443      1.723      2.920
REMARK INTER + INTRA:          -7.137
REMARK INTER:                  -6.713
REMARK INTRA:                  -0.423
REMARK UNBOUND:                -0.421
REMARK  6 active torsions:
REMARK  status: ('A' for Active; 'I' for Inactive)
REMARK    1  A    between atoms: S_1  and  C_15 
REMARK    2  A    between atoms: O_3  and  C_10 
REMARK    3  A    between atoms: O_4  and  C_12 
REMARK    4  A    between atoms: O_5  and  C_13 
REMARK    5  A    between atoms: O_6  and  C_14 
REMARK    6  A    between atoms: C_11  and  C_15 
ROOT
HETATM    1  O   UNL     1      46.258  43.497  50.865  1.00  0.00    -0.328 OA
HETATM    2  C   UNL     1      43.816  43.720  50.634  1.00  0.00     0.168 C 
HETATM    3  C   UNL     1      45.093  44.209  51.361  1.00  0.00     0.166 C 
HETATM    4  C   UNL     1      44.005  43.756  49.106  1.00  0.00     0.172 C 
HETATM    5  C   UNL     1      45.286  43.046  48.671  1.00  0.00     0.197 C 
HETATM    6  C   UNL     1      46.468  43.608  49.471  1.00  0.00     0.263 C 
ENDROOT
BRANCH   3   7
HETATM    7  C   UNL     1      45.099  43.933  52.865  1.00  0.00     0.178 C 
BRANCH   7   8
HETATM    8  S   UNL     1      44.358  45.201  53.841  1.00  0.00     0.118 S 
HETATM    9  O   UNL     1      44.680  46.415  53.091  1.00  0.00    -0.594 OA
HETATM   10  O   UNL     1      42.944  44.839  53.837  1.00  0.00    -0.594 OA
HETATM   11  O   UNL     1      45.028  45.076  55.131  1.00  0.00    -0.594 OA
ENDBRANCH   7   8
ENDBRANCH   3   7
BRANCH   2  12
HETATM   12  O   UNL     1      42.638  44.500  50.865  1.00  0.00    -0.380 OA
HETATM   13  H   UNL     1      42.000  43.960  51.400  1.00  0.00     0.211 HD
ENDBRANCH   2  12
BRANCH   6  14
HETATM   14  O   UNL     1      46.704  44.964  49.114  1.00  0.00    -0.359 OA
HETATM   15  H   UNL     1      46.283  45.478  49.827  1.00  0.00     0.213 HD
ENDBRANCH   6  14
BRANCH   4  16
HETATM   16  O   UNL     1      42.852  43.146  48.494  1.00  0.00    -0.380 OA
HETATM   17  H   UNL     1      42.762  42.296  48.973  1.00  0.00     0.211 HD
ENDBRANCH   4  16
BRANCH   5  18
HETATM   18  O   UNL     1      45.529  43.230  47.264  1.00  0.00    -0.378 OA
HETATM   19  H   UNL     1      46.226  42.583  47.040  1.00  0.00     0.211 HD
ENDBRANCH   5  18
TORSDOF 6
ENDMDL
MODEL 5
REMARK VINA RESULT:    -5.212      2.606      5.181
REMARK INTER + INTRA:          -6.852
REMARK INTER:                  -6.426
REMARK INTRA:                  -0.426
REMARK UNBOUND:                -0.421
REMARK  6 active torsions:
REMARK  status: ('A' for Active; 'I' for Inactive)
REMARK    1  A    between atoms: S_1  and  C_15 
REMARK    2  A    between atoms: O_3  and  C_10 
REMARK    3  A    between atoms: O_4  and  C_12 
REMARK    4  A    between atoms: O_5  and  C_13 
REMARK    5  A    between atoms: O_6  and  C_14 
REMARK    6  A    between atoms: C_11  and  C_15 
ROOT
HETATM    1  O   UNL     1      44.257  42.664  51.004  1.00  0.00    -0.328 OA
HETATM    2  C   UNL     1      46.051  44.279  51.494  1.00  0.00     0.168 C 
HETATM    3  C   UNL     1      45.407  43.348  50.437  1.00  0.00     0.166 C 
HETATM    4  C   UNL     1      44.994  45.196  52.136  1.00  0.00     0.172 C 
HETATM    5  C   UNL     1      43.786  44.409  52.645  1.00  0.00     0.197 C 
HETATM    6  C   UNL     1      43.255  43.520  51.514  1.00  0.00     0.263 C 
ENDROOT
BRANCH   3   7
HETATM    7  C   UNL     1      46.320  42.216  49.964  1.00  0.00     0.178 C 
BRANCH   7   8
HETATM    8  S   UNL     1      47.333  42.627  48.581  1.00  0.00     0.118 S 
HETATM    9  O   UNL     1      46.473  43.520  47.805  1.00  0.00    -0.594 OA
HETATM   10  O   UNL     1      48.487  43.274  49.197  1.00  0.00    -0.594 OA
HETATM   11  O   UNL     1      47.604  41.336  47.958  1.00  0.00    -0.594 OA
ENDBRANCH   7   8
ENDBRANCH   3   7
BRANCH   2  12
HETATM   12  O   UNL     1      47.047  45.179  50.997  1.00  0.00    -0.380 OA
HETATM   13  H   UNL     1      47.892  45.022  51.493  1.00  0.00     0.211 HD
ENDBRANCH   2  12
BRANCH   6  14
HETATM   14  O   UNL     1      42.711  44.321  50.472  1.00  0.00    -0.359 OA
HETATM   15  H   UNL     1      42.361  43.677  49.831  1.00  0.00     0.213 HD
ENDBRANCH   6  14
BRANCH   4  16
HETATM   16  O   UNL     1      45.619  45.921  53.213  1.00  0.00    -0.380 OA
HETATM   17  H   UNL     1      45.073  46.733  53.289  1.00  0.00     0.211 HD
ENDBRANCH   4  16
BRANCH   5  18
HETATM   18  O   UNL     1      42.742  45.293  53.092  1.00  0.00    -0.378 OA
HETATM   19  H   UNL     1      42.994  46.175  52.757  1.00  0.00     0.211 HD
ENDBRANCH   5  18
TORSDOF 6
ENDMDL
MODEL 6
REMARK VINA RESULT:    -5.043      1.682      3.322
REMARK INTER + INTRA:          -6.643
REMARK INTER:                  -6.261
REMARK INTRA:                  -0.382
REMARK UNBOUND:                -0.421
REMARK  6 active torsions:
REMARK  status: ('A' for Active; 'I' for Inactive)
REMARK    1  A    between atoms: S_1  and  C_15 
REMARK    2  A    between atoms: O_3  and  C_10 
REMARK    3  A    between atoms: O_4  and  C_12 
REMARK    4  A    between atoms: O_5  and  C_13 
REMARK    5  A    between atoms: O_6  and  C_14 
REMARK    6  A    between atoms: C_11  and  C_15 
ROOT
HETATM    1  O   UNL     1      46.144  42.803  51.671  1.00  0.00    -0.328 OA
HETATM    2  C   UNL     1      45.105  43.277  49.490  1.00  0.00     0.168 C 
HETATM    3  C   UNL     1      45.065  43.522  51.018  1.00  0.00     0.166 C 
HETATM    4  C   UNL     1      46.511  43.551  48.925  1.00  0.00     0.172 C 
HETATM    5  C   UNL     1      47.596  42.813  49.708  1.00  0.00     0.197 C 
HETATM    6  C   UNL     1      47.438  43.126  51.201  1.00  0.00     0.263 C 
ENDROOT
BRANCH   3   7
HETATM    7  C   UNL     1      43.800  43.000  51.701  1.00  0.00     0.178 C 
BRANCH   7   8
HETATM    8  S   UNL     1      42.670  44.258  52.201  1.00  0.00     0.118 S 
HETATM    9  O   UNL     1      42.827  45.267  51.155  1.00  0.00    -0.594 OA
HETATM   10  O   UNL     1      41.384  43.568  52.195  1.00  0.00    -0.594 OA
HETATM   11  O   UNL     1      43.157  44.653  53.518  1.00  0.00    -0.594 OA
ENDBRANCH   7   8
ENDBRANCH   3   7
BRANCH   2  12
HETATM   12  O   UNL     1      44.241  44.108  48.709  1.00  0.00    -0.380 OA
HETATM   13  H   UNL     1      43.510  44.443  49.291  1.00  0.00     0.211 HD
ENDBRANCH   2  12
BRANCH   6  14
HETATM   14  O   UNL     1      47.725  44.497  51.450  1.00  0.00    -0.359 OA
HETATM   15  H   UNL     1      47.461  44.951  50.630  1.00  0.00     0.213 HD
ENDBRANCH   6  14
BRANCH   4  16
HETATM   16  O   UNL     1      46.526  43.156  47.539  1.00  0.00    -0.380 OA
HETATM   17  H   UNL     1      47.473  43.226  47.292  1.00  0.00     0.211 HD
ENDBRANCH   4  16
BRANCH   5  18
HETATM   18  O   UNL     1      48.910  43.207  49.272  1.00  0.00    -0.378 OA
HETATM   19  H   UNL     1      49.388  43.447  50.089  1.00  0.00     0.211 HD
ENDBRANCH   5  18
TORSDOF 6
ENDMDL
MODEL 7
REMARK VINA RESULT:    -4.974      2.227      2.623
REMARK INTER + INTRA:          -6.558
REMARK INTER:                  -6.123
REMARK INTRA:                  -0.435
REMARK UNBOUND:                -0.421
REMARK  6 active torsions:
REMARK  status: ('A' for Active; 'I' for Inactive)
REMARK    1  A    between atoms: S_1  and  C_15 
REMARK    2  A    between atoms: O_3  and  C_10 
REMARK    3  A    between atoms: O_4  and  C_12 
REMARK    4  A    between atoms: O_5  and  C_13 
REMARK    5  A    between atoms: O_6  and  C_14 
REMARK    6  A    between atoms: C_11  and  C_15 
ROOT
HETATM    1  O   UNL     1      43.822  44.474  51.189  1.00  0.00    -0.328 OA
HETATM    2  C   UNL     1      46.284  44.483  51.154  1.00  0.00     0.168 C 
HETATM    3  C   UNL     1      45.007  44.153  51.965  1.00  0.00     0.166 C 
HETATM    4  C   UNL     1      46.226  43.848  49.752  1.00  0.00     0.172 C 
HETATM    5  C   UNL     1      44.920  44.175  49.029  1.00  0.00     0.197 C 
HETATM    6  C   UNL     1      43.739  43.818  49.939  1.00  0.00     0.263 C 
ENDROOT
BRANCH   3   7
HETATM    7  C   UNL     1      44.850  44.975  53.244  1.00  0.00     0.178 C 
BRANCH   7   8
HETATM    8  S   UNL     1      45.522  44.214  54.686  1.00  0.00     0.118 S 
HETATM    9  O   UNL     1      46.924  44.630  54.647  1.00  0.00    -0.594 OA
HETATM   10  O   UNL     1      44.741  44.805  55.767  1.00  0.00    -0.594 OA
HETATM   11  O   UNL     1      45.295  42.791  54.461  1.00  0.00    -0.594 OA
ENDBRANCH   7   8
ENDBRANCH   3   7
BRANCH   2  12
HETATM   12  O   UNL     1      47.511  44.001  51.712  1.00  0.00    -0.380 OA
HETATM   13  H   UNL     1      47.919  44.725  52.255  1.00  0.00     0.211 HD
ENDBRANCH   2  12
BRANCH   6  14
HETATM   14  O   UNL     1      43.670  42.409  50.125  1.00  0.00    -0.359 OA
HETATM   15  H   UNL     1      44.459  42.197  50.654  1.00  0.00     0.213 HD
ENDBRANCH   6  14
BRANCH   4  16
HETATM   16  O   UNL     1      47.359  44.318  48.996  1.00  0.00    -0.380 OA
HETATM   17  H   UNL     1      47.874  43.501  48.825  1.00  0.00     0.211 HD
ENDBRANCH   4  16
BRANCH   5  18
HETATM   18  O   UNL     1      44.814  43.444  47.794  1.00  0.00    -0.378 OA
HETATM   19  H   UNL     1      45.501  43.824  47.213  1.00  0.00     0.211 HD
ENDBRANCH   5  18
TORSDOF 6
ENDMDL
MODEL 8
REMARK VINA RESULT:    -4.911      2.437      5.560
REMARK INTER + INTRA:          -6.480
REMARK INTER:                  -6.058
REMARK INTRA:                  -0.422
REMARK UNBOUND:                -0.421
REMARK  6 active torsions:
REMARK  status: ('A' for Active; 'I' for Inactive)
REMARK    1  A    between atoms: S_1  and  C_15 
REMARK    2  A    between atoms: O_3  and  C_10 
REMARK    3  A    between atoms: O_4  and  C_12 
REMARK    4  A    between atoms: O_5  and  C_13 
REMARK    5  A    between atoms: O_6  and  C_14 
REMARK    6  A    between atoms: C_11  and  C_15 
ROOT
HETATM    1  O   UNL     1      45.395  43.376  53.153  1.00  0.00    -0.328 OA
HETATM    2  C   UNL     1      43.418  44.319  52.029  1.00  0.00     0.168 C 
HETATM    3  C   UNL     1      44.755  43.556  51.862  1.00  0.00     0.166 C 
HETATM    4  C   UNL     1      42.540  43.662  53.110  1.00  0.00     0.172 C 
HETATM    5  C   UNL     1      43.306  43.444  54.414  1.00  0.00     0.197 C 
HETATM    6  C   UNL     1      44.610  42.696  54.112  1.00  0.00     0.263 C 
ENDROOT
BRANCH   3   7
HETATM    7  C   UNL     1      45.798  44.300  51.027  1.00  0.00     0.178 C 
BRANCH   7   8
HETATM    8  S   UNL     1      45.859  43.812  49.333  1.00  0.00     0.118 S 
HETATM    9  O   UNL     1      44.672  44.455  48.770  1.00  0.00    -0.594 OA
HETATM   10  O   UNL     1      47.128  44.367  48.875  1.00  0.00    -0.594 OA
HETATM   11  O   UNL     1      45.803  42.356  49.394  1.00  0.00    -0.594 OA
ENDBRANCH   7   8
ENDBRANCH   3   7
BRANCH   2  12
HETATM   12  O   UNL     1      42.581  44.358  50.868  1.00  0.00    -0.380 OA
HETATM   13  H   UNL     1      42.978  43.774  50.170  1.00  0.00     0.211 HD
ENDBRANCH   2  12
BRANCH   6  14
HETATM   14  O   UNL     1      44.328  41.374  53.670  1.00  0.00    -0.359 OA
HETATM   15  H   UNL     1      43.881  41.496  52.814  1.00  0.00     0.213 HD
ENDBRANCH   6  14
BRANCH   4  16
HETATM   16  O   UNL     1      41.389  44.500  53.329  1.00  0.00    -0.380 OA
HETATM   17  H   UNL     1      41.585  44.938  54.184  1.00  0.00     0.211 HD
ENDBRANCH   4  16
BRANCH   5  18
HETATM   18  O   UNL     1      42.524  42.685  55.355  1.00  0.00    -0.378 OA
HETATM   19  H   UNL     1      41.921  43.334  55.766  1.00  0.00     0.211 HD
ENDBRANCH   5  18
TORSDOF 6
ENDMDL
MODEL 9
REMARK VINA RESULT:    -4.730      2.318      5.508
REMARK INTER + INTRA:          -6.257
REMARK INTER:                  -6.055
REMARK INTRA:                  -0.202
REMARK UNBOUND:                -0.421
REMARK  6 active torsions:
REMARK  status: ('A' for Active; 'I' for Inactive)
REMARK    1  A    between atoms: S_1  and  C_15 
REMARK    2  A    between atoms: O_3  and  C_10 
REMARK    3  A    between atoms: O_4  and  C_12 
REMARK    4  A    between atoms: O_5  and  C_13 
REMARK    5  A    between atoms: O_6  and  C_14 
REMARK    6  A    between atoms: C_11  and  C_15 
ROOT
HETATM    1  O   UNL     1      45.647  43.354  52.344  1.00  0.00    -0.328 OA
HETATM    2  C   UNL     1      43.609  43.691  51.005  1.00  0.00     0.168 C 
HETATM    3  C   UNL     1      45.075  43.193  51.019  1.00  0.00     0.166 C 
HETATM    4  C   UNL     1      42.800  43.053  52.149  1.00  0.00     0.172 C 
HETATM    5  C   UNL     1      43.501  43.204  53.499  1.00  0.00     0.197 C 
HETATM    6  C   UNL     1      44.942  42.692  53.376  1.00  0.00     0.263 C 
ENDROOT
BRANCH   3   7
HETATM    7  C   UNL     1      46.012  43.987  50.108  1.00  0.00     0.178 C 
BRANCH   7   8
HETATM    8  S   UNL     1      46.922  43.002  48.963  1.00  0.00     0.118 S 
HETATM    9  O   UNL     1      46.546  41.640  49.339  1.00  0.00    -0.594 OA
HETATM   10  O   UNL     1      46.409  43.441  47.669  1.00  0.00    -0.594 OA
HETATM   11  O   UNL     1      48.311  43.357  49.233  1.00  0.00    -0.594 OA
ENDBRANCH   7   8
ENDBRANCH   3   7
BRANCH   2  12
HETATM   12  O   UNL     1      42.862  43.376  49.825  1.00  0.00    -0.380 OA
HETATM   13  H   UNL     1      42.140  42.740  50.066  1.00  0.00     0.211 HD
ENDBRANCH   2  12
BRANCH   6  14
HETATM   14  O   UNL     1      44.948  41.287  53.156  1.00  0.00    -0.359 OA
HETATM   15  H   UNL     1      44.663  40.909  54.006  1.00  0.00     0.213 HD
ENDBRANCH   6  14
BRANCH   4  16
HETATM   16  O   UNL     1      41.498  43.669  52.181  1.00  0.00    -0.380 OA
HETATM   17  H   UNL     1      41.261  43.653  53.132  1.00  0.00     0.211 HD
ENDBRANCH   4  16
BRANCH   5  18
HETATM   18  O   UNL     1      42.815  42.464  54.526  1.00  0.00    -0.378 OA
HETATM   19  H   UNL     1      41.882  42.744  54.460  1.00  0.00     0.211 HD
ENDBRANCH   5  18
TORSDOF 6
ENDMDL
MODEL 10
REMARK VINA RESULT:    -4.415      2.834      5.583
REMARK INTER + INTRA:          -5.869
REMARK INTER:                  -5.465
REMARK INTRA:                  -0.404
REMARK UNBOUND:                -0.421
REMARK  6 active torsions:
REMARK  status: ('A' for Active; 'I' for Inactive)
REMARK    1  A    between atoms: S_1  and  C_15 
REMARK    2  A    between atoms: O_3  and  C_10 
REMARK    3  A    between atoms: O_4  and  C_12 
REMARK    4  A    between atoms: O_5  and  C_13 
REMARK    5  A    between atoms: O_6  and  C_14 
REMARK    6  A    between atoms: C_11  and  C_15 
ROOT
HETATM    1  O   UNL     1      44.779  42.106  52.309  1.00  0.00    -0.328 OA
HETATM    2  C   UNL     1      46.488  43.871  52.474  1.00  0.00     0.168 C 
HETATM    3  C   UNL     1      45.482  43.132  51.559  1.00  0.00     0.166 C 
HETATM    4  C   UNL     1      45.805  44.356  53.765  1.00  0.00     0.172 C 
HETATM    5  C   UNL     1      45.030  43.236  54.459  1.00  0.00     0.197 C 
HETATM    6  C   UNL     1      44.085  42.578  53.447  1.00  0.00     0.263 C 
ENDROOT
BRANCH   3   7
HETATM    7  C   UNL     1      46.132  42.370  50.403  1.00  0.00     0.178 C 
BRANCH   7   8
HETATM    8  S   UNL     1      46.445  43.349  48.970  1.00  0.00     0.118 S 
HETATM    9  O   UNL     1      46.411  42.362  47.892  1.00  0.00    -0.594 OA
HETATM   10  O   UNL     1      45.333  44.294  48.966  1.00  0.00    -0.594 OA
HETATM   11  O   UNL     1      47.756  43.932  49.232  1.00  0.00    -0.594 OA
ENDBRANCH   7   8
ENDBRANCH   3   7
BRANCH   2  12
HETATM   12  O   UNL     1      47.076  45.052  51.918  1.00  0.00    -0.380 OA
HETATM   13  H   UNL     1      46.523  45.351  51.150  1.00  0.00     0.211 HD
ENDBRANCH   2  12
BRANCH   6  14
HETATM   14  O   UNL     1      43.066  43.492  53.058  1.00  0.00    -0.359 OA
HETATM   15  H   UNL     1      43.270  43.699  52.129  1.00  0.00     0.213 HD
ENDBRANCH   6  14
BRANCH   4  16
HETATM   16  O   UNL     1      46.817  44.892  54.640  1.00  0.00    -0.380 OA
HETATM   17  H   UNL     1      46.665  45.860  54.600  1.00  0.00     0.211 HD
ENDBRANCH   4  16
BRANCH   5  18
HETATM   18  O   UNL     1      44.267  43.743  55.570  1.00  0.00    -0.378 OA
HETATM   19  H   UNL     1      44.899  43.783  56.314  1.00  0.00     0.211 HD
ENDBRANCH   5  18
TORSDOF 6
ENDMDL
