MODEL 1
REMARK VINA RESULT:    -5.471      0.000      0.000
REMARK INTER + INTRA:          -7.183
REMARK INTER:                  -6.811
REMARK INTRA:                  -0.372
REMARK UNBOUND:                -0.433
REMARK  6 active torsions:
REMARK  status: ('A' for Active; 'I' for Inactive)
REMARK    1  A    between atoms: S_1  and  C_15 
REMARK    2  A    between atoms: O_3  and  C_10 
REMARK    3  A    between atoms: O_4  and  C_12 
REMARK    4  A    between atoms: O_5  and  C_13 
REMARK    5  A    between atoms: O_6  and  C_14 
REMARK    6  A    between atoms: C_11  and  C_15 
ROOT
HETATM    1  O   UNL     1      41.718  45.567  35.274  1.00  0.00    -0.328 OA
HETATM    2  C   UNL     1      40.147  45.833  33.397  1.00  0.00     0.168 C 
HETATM    3  C   UNL     1      40.448  45.114  34.735  1.00  0.00     0.166 C 
HETATM    4  C   UNL     1      40.288  47.359  33.548  1.00  0.00     0.172 C 
HETATM    5  C   UNL     1      41.621  47.750  34.186  1.00  0.00     0.197 C 
HETATM    6  C   UNL     1      41.805  46.962  35.488  1.00  0.00     0.263 C 
ENDROOT
BRANCH   3   7
HETATM    7  C   UNL     1      40.616  43.600  34.605  1.00  0.00     0.178 C 
BRANCH   7   8
HETATM    8  S   UNL     1      39.288  42.658  35.284  1.00  0.00     0.118 S 
HETATM    9  O   UNL     1      38.226  42.841  34.295  1.00  0.00    -0.594 OA
HETATM   10  O   UNL     1      39.837  41.308  35.346  1.00  0.00    -0.594 OA
HETATM   11  O   UNL     1      39.044  43.291  36.575  1.00  0.00    -0.594 OA
ENDBRANCH   7   8
ENDBRANCH   3   7
BRANCH   2  12
HETATM   12  O   UNL     1      38.825  45.648  32.881  1.00  0.00    -0.380 OA
HETATM   13  H   UNL     1      38.871  45.624  31.890  1.00  0.00     0.211 HD
ENDBRANCH   2  12
BRANCH   6  14
HETATM   14  O   UNL     1      40.843  47.374  36.453  1.00  0.00    -0.359 OA
HETATM   15  H   UNL     1      39.985  47.163  36.043  1.00  0.00     0.213 HD
ENDBRANCH   6  14
BRANCH   4  16
HETATM   16  O   UNL     1      40.152  47.957  32.245  1.00  0.00    -0.380 OA
HETATM   17  H   UNL     1      40.260  47.198  31.633  1.00  0.00     0.211 HD
ENDBRANCH   4  16
BRANCH   5  18
HETATM   18  O   UNL     1      41.666  49.161  34.468  1.00  0.00    -0.378 OA
HETATM   19  H   UNL     1      42.300  49.529  33.822  1.00  0.00     0.211 HD
ENDBRANCH   5  18
TORSDOF 6
ENDMDL
MODEL 2
REMARK VINA RESULT:    -5.274      1.067      1.391
REMARK INTER + INTRA:          -6.941
REMARK INTER:                  -6.505
REMARK INTRA:                  -0.436
REMARK UNBOUND:                -0.433
REMARK  6 active torsions:
REMARK  status: ('A' for Active; 'I' for Inactive)
REMARK    1  A    between atoms: S_1  and  C_15 
REMARK    2  A    between atoms: O_3  and  C_10 
REMARK    3  A    between atoms: O_4  and  C_12 
REMARK    4  A    between atoms: O_5  and  C_13 
REMARK    5  A    between atoms: O_6  and  C_14 
REMARK    6  A    between atoms: C_11  and  C_15 
ROOT
HETATM    1  O   UNL     1      41.623  45.578  36.078  1.00  0.00    -0.328 OA
HETATM    2  C   UNL     1      40.343  44.944  34.073  1.00  0.00     0.168 C 
HETATM    3  C   UNL     1      40.600  44.677  35.576  1.00  0.00     0.166 C 
HETATM    4  C   UNL     1      40.084  46.439  33.815  1.00  0.00     0.172 C 
HETATM    5  C   UNL     1      41.167  47.323  34.433  1.00  0.00     0.197 C 
HETATM    6  C   UNL     1      41.334  46.951  35.912  1.00  0.00     0.263 C 
ENDROOT
BRANCH   3   7
HETATM    7  C   UNL     1      41.149  43.282  35.878  1.00  0.00     0.178 C 
BRANCH   7   8
HETATM    8  S   UNL     1      39.914  42.079  36.251  1.00  0.00     0.118 S 
HETATM    9  O   UNL     1      38.884  42.871  36.920  1.00  0.00    -0.594 OA
HETATM   10  O   UNL     1      39.536  41.574  34.935  1.00  0.00    -0.594 OA
HETATM   11  O   UNL     1      40.613  41.125  37.105  1.00  0.00    -0.594 OA
ENDBRANCH   7   8
ENDBRANCH   3   7
BRANCH   2  12
HETATM   12  O   UNL     1      39.202  44.285  33.516  1.00  0.00    -0.380 OA
HETATM   13  H   UNL     1      39.090  43.407  33.966  1.00  0.00     0.211 HD
ENDBRANCH   2  12
BRANCH   6  14
HETATM   14  O   UNL     1      40.165  47.302  36.642  1.00  0.00    -0.359 OA
HETATM   15  H   UNL     1      39.661  46.471  36.704  1.00  0.00     0.213 HD
ENDBRANCH   6  14
BRANCH   4  16
HETATM   16  O   UNL     1      40.010  46.647  32.391  1.00  0.00    -0.380 OA
HETATM   17  H   UNL     1      40.680  47.343  32.226  1.00  0.00     0.211 HD
ENDBRANCH   4  16
BRANCH   5  18
HETATM   18  O   UNL     1      40.825  48.717  34.324  1.00  0.00    -0.378 OA
HETATM   19  H   UNL     1      41.609  49.140  33.925  1.00  0.00     0.211 HD
ENDBRANCH   5  18
TORSDOF 6
ENDMDL
MODEL 3
REMARK VINA RESULT:    -5.126      1.579      2.382
REMARK INTER + INTRA:          -6.758
REMARK INTER:                  -6.324
REMARK INTRA:                  -0.433
REMARK UNBOUND:                -0.433
REMARK  6 active torsions:
REMARK  status: ('A' for Active; 'I' for Inactive)
REMARK    1  A    between atoms: S_1  and  C_15 
REMARK    2  A    between atoms: O_3  and  C_10 
REMARK    3  A    between atoms: O_4  and  C_12 
REMARK    4  A    between atoms: O_5  and  C_13 
REMARK    5  A    between atoms: O_6  and  C_14 
REMARK    6  A    between atoms: C_11  and  C_15 
ROOT
HETATM    1  O   UNL     1      39.816  46.357  34.981  1.00  0.00    -0.328 OA
HETATM    2  C   UNL     1      41.624  45.127  33.848  1.00  0.00     0.168 C 
HETATM    3  C   UNL     1      40.218  45.049  34.491  1.00  0.00     0.166 C 
HETATM    4  C   UNL     1      41.694  46.265  32.813  1.00  0.00     0.172 C 
HETATM    5  C   UNL     1      41.191  47.590  33.384  1.00  0.00     0.197 C 
HETATM    6  C   UNL     1      39.803  47.376  34.001  1.00  0.00     0.263 C 
ENDROOT
BRANCH   3   7
HETATM    7  C   UNL     1      40.144  44.149  35.725  1.00  0.00     0.178 C 
BRANCH   7   8
HETATM    8  S   UNL     1      39.609  42.501  35.394  1.00  0.00     0.118 S 
HETATM    9  O   UNL     1      39.132  42.049  36.700  1.00  0.00    -0.594 OA
HETATM   10  O   UNL     1      38.563  42.688  34.394  1.00  0.00    -0.594 OA
HETATM   11  O   UNL     1      40.817  41.839  34.914  1.00  0.00    -0.594 OA
ENDBRANCH   7   8
ENDBRANCH   3   7
BRANCH   2  12
HETATM   12  O   UNL     1      42.036  43.963  33.125  1.00  0.00    -0.380 OA
HETATM   13  H   UNL     1      42.670  44.239  32.413  1.00  0.00     0.211 HD
ENDBRANCH   2  12
BRANCH   6  14
HETATM   14  O   UNL     1      38.854  47.072  32.986  1.00  0.00    -0.359 OA
HETATM   15  H   UNL     1      38.185  47.774  33.064  1.00  0.00     0.213 HD
ENDBRANCH   6  14
BRANCH   4  16
HETATM   16  O   UNL     1      43.059  46.388  32.369  1.00  0.00    -0.380 OA
HETATM   17  H   UNL     1      43.518  45.658  32.835  1.00  0.00     0.211 HD
ENDBRANCH   4  16
BRANCH   5  18
HETATM   18  O   UNL     1      41.110  48.599  32.361  1.00  0.00    -0.378 OA
HETATM   19  H   UNL     1      40.155  48.713  32.191  1.00  0.00     0.211 HD
ENDBRANCH   5  18
TORSDOF 6
ENDMDL
MODEL 4
REMARK VINA RESULT:    -5.050      2.239      5.413
REMARK INTER + INTRA:          -6.663
REMARK INTER:                  -6.190
REMARK INTRA:                  -0.473
REMARK UNBOUND:                -0.433
REMARK  6 active torsions:
REMARK  status: ('A' for Active; 'I' for Inactive)
REMARK    1  A    between atoms: S_1  and  C_15 
REMARK    2  A    between atoms: O_3  and  C_10 
REMARK    3  A    between atoms: O_4  and  C_12 
REMARK    4  A    between atoms: O_5  and  C_13 
REMARK    5  A    between atoms: O_6  and  C_14 
REMARK    6  A    between atoms: C_11  and  C_15 
ROOT
HETATM    1  O   UNL     1      41.001  43.430  34.767  1.00  0.00    -0.328 OA
HETATM    2  C   UNL     1      40.316  44.647  36.796  1.00  0.00     0.168 C 
HETATM    3  C   UNL     1      40.376  44.650  35.248  1.00  0.00     0.166 C 
HETATM    4  C   UNL     1      39.693  43.341  37.321  1.00  0.00     0.172 C 
HETATM    5  C   UNL     1      40.360  42.105  36.716  1.00  0.00     0.197 C 
HETATM    6  C   UNL     1      40.368  42.237  35.188  1.00  0.00     0.263 C 
ENDROOT
BRANCH   3   7
HETATM    7  C   UNL     1      41.236  45.768  34.659  1.00  0.00     0.178 C 
BRANCH   7   8
HETATM    8  S   UNL     1      40.438  47.339  34.585  1.00  0.00     0.118 S 
HETATM    9  O   UNL     1      39.021  46.984  34.646  1.00  0.00    -0.594 OA
HETATM   10  O   UNL     1      40.946  48.024  35.770  1.00  0.00    -0.594 OA
HETATM   11  O   UNL     1      40.882  47.890  33.310  1.00  0.00    -0.594 OA
ENDBRANCH   7   8
ENDBRANCH   3   7
BRANCH   2  12
HETATM   12  O   UNL     1      39.521  45.681  37.384  1.00  0.00    -0.380 OA
HETATM   13  H   UNL     1      39.923  46.560  37.157  1.00  0.00     0.211 HD
ENDBRANCH   2  12
BRANCH   6  14
HETATM   14  O   UNL     1      39.040  42.178  34.681  1.00  0.00    -0.359 OA
HETATM   15  H   UNL     1      39.058  41.443  34.042  1.00  0.00     0.213 HD
ENDBRANCH   6  14
BRANCH   4  16
HETATM   16  O   UNL     1      39.810  43.330  38.757  1.00  0.00    -0.380 OA
HETATM   17  H   UNL     1      40.624  43.849  38.924  1.00  0.00     0.211 HD
ENDBRANCH   4  16
BRANCH   5  18
HETATM   18  O   UNL     1      39.662  40.904  37.090  1.00  0.00    -0.378 OA
HETATM   19  H   UNL     1      39.314  40.540  36.252  1.00  0.00     0.211 HD
ENDBRANCH   5  18
TORSDOF 6
ENDMDL
MODEL 5
REMARK VINA RESULT:    -4.861      1.518      2.123
REMARK INTER + INTRA:          -6.430
REMARK INTER:                  -6.200
REMARK INTRA:                  -0.230
REMARK UNBOUND:                -0.433
REMARK  6 active torsions:
REMARK  status: ('A' for Active; 'I' for Inactive)
REMARK    1  A    between atoms: S_1  and  C_15 
REMARK    2  A    between atoms: O_3  and  C_10 
REMARK    3  A    between atoms: O_4  and  C_12 
REMARK    4  A    between atoms: O_5  and  C_13 
REMARK    5  A    between atoms: O_6  and  C_14 
REMARK    6  A    between atoms: C_11  and  C_15 
ROOT
HETATM    1  O   UNL     1      41.652  44.798  33.314  1.00  0.00    -0.328 OA
HETATM    2  C   UNL     1      40.254  46.395  34.562  1.00  0.00     0.168 C 
HETATM    3  C   UNL     1      40.861  44.971  34.520  1.00  0.00     0.166 C 
HETATM    4  C   UNL     1      41.338  47.464  34.330  1.00  0.00     0.172 C 
HETATM    5  C   UNL     1      42.170  47.172  33.081  1.00  0.00     0.197 C 
HETATM    6  C   UNL     1      42.699  45.734  33.155  1.00  0.00     0.263 C 
ENDROOT
BRANCH   3   7
HETATM    7  C   UNL     1      39.822  43.852  34.451  1.00  0.00     0.178 C 
BRANCH   7   8
HETATM    8  S   UNL     1      39.797  42.793  35.862  1.00  0.00     0.118 S 
HETATM    9  O   UNL     1      39.723  41.461  35.264  1.00  0.00    -0.594 OA
HETATM   10  O   UNL     1      41.061  43.095  36.525  1.00  0.00    -0.594 OA
HETATM   11  O   UNL     1      38.601  43.213  36.583  1.00  0.00    -0.594 OA
ENDBRANCH   7   8
ENDBRANCH   3   7
BRANCH   2  12
HETATM   12  O   UNL     1      39.646  46.770  35.803  1.00  0.00    -0.380 OA
HETATM   13  H   UNL     1      40.343  47.158  36.394  1.00  0.00     0.211 HD
ENDBRANCH   2  12
BRANCH   6  14
HETATM   14  O   UNL     1      43.639  45.609  34.215  1.00  0.00    -0.359 OA
HETATM   15  H   UNL     1      43.412  44.763  34.640  1.00  0.00     0.213 HD
ENDBRANCH   6  14
BRANCH   4  16
HETATM   16  O   UNL     1      40.692  48.747  34.223  1.00  0.00    -0.380 OA
HETATM   17  H   UNL     1      40.449  48.959  35.149  1.00  0.00     0.211 HD
ENDBRANCH   4  16
BRANCH   5  18
HETATM   18  O   UNL     1      43.277  48.086  32.971  1.00  0.00    -0.378 OA
HETATM   19  H   UNL     1      43.999  47.673  33.483  1.00  0.00     0.211 HD
ENDBRANCH   5  18
TORSDOF 6
ENDMDL
MODEL 6
REMARK VINA RESULT:    -4.735      3.182      4.693
REMARK INTER + INTRA:          -6.275
REMARK INTER:                  -5.863
REMARK INTRA:                  -0.412
REMARK UNBOUND:                -0.433
REMARK  6 active torsions:
REMARK  status: ('A' for Active; 'I' for Inactive)
REMARK    1  A    between atoms: S_1  and  C_15 
REMARK    2  A    between atoms: O_3  and  C_10 
REMARK    3  A    between atoms: O_4  and  C_12 
REMARK    4  A    between atoms: O_5  and  C_13 
REMARK    5  A    between atoms: O_6  and  C_14 
REMARK    6  A    between atoms: C_11  and  C_15 
ROOT
HETATM    1  O   UNL     1      42.804  47.108  34.311  1.00  0.00    -0.328 OA
HETATM    2  C   UNL     1      41.070  47.388  32.586  1.00  0.00     0.168 C 
HETATM    3  C   UNL     1      42.430  46.746  32.956  1.00  0.00     0.166 C 
HETATM    4  C   UNL     1      40.009  47.090  33.661  1.00  0.00     0.172 C 
HETATM    5  C   UNL     1      40.505  47.434  35.065  1.00  0.00     0.197 C 
HETATM    6  C   UNL     1      41.859  46.753  35.300  1.00  0.00     0.263 C 
ENDROOT
BRANCH   3   7
HETATM    7  C   UNL     1      43.602  47.230  32.102  1.00  0.00     0.178 C 
BRANCH   7   8
HETATM    8  S   UNL     1      44.153  46.067  30.895  1.00  0.00     0.118 S 
HETATM    9  O   UNL     1      44.282  44.835  31.671  1.00  0.00    -0.594 OA
HETATM   10  O   UNL     1      43.067  46.063  29.920  1.00  0.00    -0.594 OA
HETATM   11  O   UNL     1      45.411  46.634  30.423  1.00  0.00    -0.594 OA
ENDBRANCH   7   8
ENDBRANCH   3   7
BRANCH   2  12
HETATM   12  O   UNL     1      40.480  46.925  31.367  1.00  0.00    -0.380 OA
HETATM   13  H   UNL     1      40.535  45.934  31.344  1.00  0.00     0.211 HD
ENDBRANCH   2  12
BRANCH   6  14
HETATM   14  O   UNL     1      41.698  45.340  35.344  1.00  0.00    -0.359 OA
HETATM   15  H   UNL     1      42.105  45.077  36.189  1.00  0.00     0.213 HD
ENDBRANCH   6  14
BRANCH   4  16
HETATM   16  O   UNL     1      38.821  47.840  33.344  1.00  0.00    -0.380 OA
HETATM   17  H   UNL     1      39.079  48.767  33.527  1.00  0.00     0.211 HD
ENDBRANCH   4  16
BRANCH   5  18
HETATM   18  O   UNL     1      39.568  46.999  36.068  1.00  0.00    -0.378 OA
HETATM   19  H   UNL     1      39.304  47.813  36.539  1.00  0.00     0.211 HD
ENDBRANCH   5  18
TORSDOF 6
ENDMDL
MODEL 7
REMARK VINA RESULT:    -4.486      3.330      5.770
REMARK INTER + INTRA:          -5.968
REMARK INTER:                  -5.485
REMARK INTRA:                  -0.483
REMARK UNBOUND:                -0.433
REMARK  6 active torsions:
REMARK  status: ('A' for Active; 'I' for Inactive)
REMARK    1  A    between atoms: S_1  and  C_15 
REMARK    2  A    between atoms: O_3  and  C_10 
REMARK    3  A    between atoms: O_4  and  C_12 
REMARK    4  A    between atoms: O_5  and  C_13 
REMARK    5  A    between atoms: O_6  and  C_14 
REMARK    6  A    between atoms: C_11  and  C_15 
ROOT
HETATM    1  O   UNL     1      42.797  45.878  33.982  1.00  0.00    -0.328 OA
HETATM    2  C   UNL     1      41.689  47.891  33.096  1.00  0.00     0.168 C 
HETATM    3  C   UNL     1      42.982  47.040  33.130  1.00  0.00     0.166 C 
HETATM    4  C   UNL     1      40.465  47.020  32.759  1.00  0.00     0.172 C 
HETATM    5  C   UNL     1      40.380  45.783  33.653  1.00  0.00     0.197 C 
HETATM    6  C   UNL     1      41.721  45.040  33.611  1.00  0.00     0.263 C 
ENDROOT
BRANCH   3   7
HETATM    7  C   UNL     1      44.187  47.760  33.737  1.00  0.00     0.178 C 
BRANCH   7   8
HETATM    8  S   UNL     1      44.986  48.890  32.644  1.00  0.00     0.118 S 
HETATM    9  O   UNL     1      44.633  48.368  31.325  1.00  0.00    -0.594 OA
HETATM   10  O   UNL     1      44.367  50.168  32.980  1.00  0.00    -0.594 OA
HETATM   11  O   UNL     1      46.396  48.771  32.998  1.00  0.00    -0.594 OA
ENDBRANCH   7   8
ENDBRANCH   3   7
BRANCH   2  12
HETATM   12  O   UNL     1      41.663  48.934  32.117  1.00  0.00    -0.380 OA
HETATM   13  H   UNL     1      40.717  49.158  31.916  1.00  0.00     0.211 HD
ENDBRANCH   2  12
BRANCH   6  14
HETATM   14  O   UNL     1      41.942  44.497  32.315  1.00  0.00    -0.359 OA
HETATM   15  H   UNL     1      41.081  44.119  32.062  1.00  0.00     0.213 HD
ENDBRANCH   6  14
BRANCH   4  16
HETATM   16  O   UNL     1      39.282  47.830  32.897  1.00  0.00    -0.380 OA
HETATM   17  H   UNL     1      38.767  47.621  32.089  1.00  0.00     0.211 HD
ENDBRANCH   4  16
BRANCH   5  18
HETATM   18  O   UNL     1      39.328  44.901  33.219  1.00  0.00    -0.378 OA
HETATM   19  H   UNL     1      39.178  44.296  33.971  1.00  0.00     0.211 HD
ENDBRANCH   5  18
TORSDOF 6
ENDMDL
MODEL 8
REMARK VINA RESULT:    -4.443      2.404      5.119
REMARK INTER + INTRA:          -5.914
REMARK INTER:                  -5.499
REMARK INTRA:                  -0.415
REMARK UNBOUND:                -0.433
REMARK  6 active torsions:
REMARK  status: ('A' for Active; 'I' for Inactive)
REMARK    1  A    between atoms: S_1  and  C_15 
REMARK    2  A    between atoms: O_3  and  C_10 
REMARK    3  A    between atoms: O_4  and  C_12 
REMARK    4  A    between atoms: O_5  and  C_13 
REMARK    5  A    between atoms: O_6  and  C_14 
REMARK    6  A    between atoms: C_11  and  C_15 
ROOT
HETATM    1  O   UNL     1      41.242  44.429  37.490  1.00  0.00    -0.328 OA
HETATM    2  C   UNL     1      39.915  43.864  35.495  1.00  0.00     0.168 C 
HETATM    3  C   UNL     1      40.961  44.820  36.120  1.00  0.00     0.166 C 
HETATM    4  C   UNL     1      40.329  42.393  35.686  1.00  0.00     0.172 C 
HETATM    5  C   UNL     1      40.675  42.080  37.141  1.00  0.00     0.197 C 
HETATM    6  C   UNL     1      41.703  43.101  37.643  1.00  0.00     0.263 C 
ENDROOT
BRANCH   3   7
HETATM    7  C   UNL     1      40.492  46.270  36.233  1.00  0.00     0.178 C 
BRANCH   7   8
HETATM    8  S   UNL     1      40.518  47.165  34.713  1.00  0.00     0.118 S 
HETATM    9  O   UNL     1      39.117  47.132  34.296  1.00  0.00    -0.594 OA
HETATM   10  O   UNL     1      41.004  48.482  35.113  1.00  0.00    -0.594 OA
HETATM   11  O   UNL     1      41.431  46.393  33.877  1.00  0.00    -0.594 OA
ENDBRANCH   7   8
ENDBRANCH   3   7
BRANCH   2  12
HETATM   12  O   UNL     1      39.723  43.998  34.083  1.00  0.00    -0.380 OA
HETATM   13  H   UNL     1      39.029  44.689  33.920  1.00  0.00     0.211 HD
ENDBRANCH   2  12
BRANCH   6  14
HETATM   14  O   UNL     1      42.941  42.927  36.965  1.00  0.00    -0.359 OA
HETATM   15  H   UNL     1      43.010  43.707  36.385  1.00  0.00     0.213 HD
ENDBRANCH   6  14
BRANCH   4  16
HETATM   16  O   UNL     1      39.250  41.556  35.228  1.00  0.00    -0.380 OA
HETATM   17  H   UNL     1      38.576  42.200  34.921  1.00  0.00     0.211 HD
ENDBRANCH   4  16
BRANCH   5  18
HETATM   18  O   UNL     1      41.214  40.752  37.273  1.00  0.00    -0.378 OA
HETATM   19  H   UNL     1      41.120  40.533  38.220  1.00  0.00     0.211 HD
ENDBRANCH   5  18
TORSDOF 6
ENDMDL
MODEL 9
REMARK VINA RESULT:    -4.216      4.464      6.252
REMARK INTER + INTRA:          -5.635
REMARK INTER:                  -5.149
REMARK INTRA:                  -0.485
REMARK UNBOUND:                -0.433
REMARK  6 active torsions:
REMARK  status: ('A' for Active; 'I' for Inactive)
REMARK    1  A    between atoms: S_1  and  C_15 
REMARK    2  A    between atoms: O_3  and  C_10 
REMARK    3  A    between atoms: O_4  and  C_12 
REMARK    4  A    between atoms: O_5  and  C_13 
REMARK    5  A    between atoms: O_6  and  C_14 
REMARK    6  A    between atoms: C_11  and  C_15 
ROOT
HETATM    1  O   UNL     1      43.713  45.437  33.384  1.00  0.00    -0.328 OA
HETATM    2  C   UNL     1      43.273  47.599  32.290  1.00  0.00     0.168 C 
HETATM    3  C   UNL     1      44.177  46.343  32.347  1.00  0.00     0.166 C 
HETATM    4  C   UNL     1      41.788  47.205  32.200  1.00  0.00     0.172 C 
HETATM    5  C   UNL     1      41.396  46.199  33.281  1.00  0.00     0.197 C 
HETATM    6  C   UNL     1      42.371  45.016  33.243  1.00  0.00     0.263 C 
ENDROOT
BRANCH   3   7
HETATM    7  C   UNL     1      45.629  46.635  32.728  1.00  0.00     0.178 C 
BRANCH   7   8
HETATM    8  S   UNL     1      46.633  47.198  31.391  1.00  0.00     0.118 S 
HETATM    9  O   UNL     1      45.950  46.646  30.221  1.00  0.00    -0.594 OA
HETATM   10  O   UNL     1      46.560  48.650  31.511  1.00  0.00    -0.594 OA
HETATM   11  O   UNL     1      47.939  46.615  31.676  1.00  0.00    -0.594 OA
ENDBRANCH   7   8
ENDBRANCH   3   7
BRANCH   2  12
HETATM   12  O   UNL     1      43.482  48.458  31.164  1.00  0.00    -0.380 OA
HETATM   13  H   UNL     1      42.598  48.727  30.802  1.00  0.00     0.211 HD
ENDBRANCH   2  12
BRANCH   6  14
HETATM   14  O   UNL     1      42.209  44.283  32.035  1.00  0.00    -0.359 OA
HETATM   15  H   UNL     1      42.663  44.822  31.363  1.00  0.00     0.213 HD
ENDBRANCH   6  14
BRANCH   4  16
HETATM   16  O   UNL     1      40.995  48.403  32.309  1.00  0.00    -0.380 OA
HETATM   17  H   UNL     1      40.104  48.067  32.545  1.00  0.00     0.211 HD
ENDBRANCH   4  16
BRANCH   5  18
HETATM   18  O   UNL     1      40.053  45.720  33.083  1.00  0.00    -0.378 OA
HETATM   19  H   UNL     1      40.063  44.797  33.402  1.00  0.00     0.211 HD
ENDBRANCH   5  18
TORSDOF 6
ENDMDL
MODEL 10
REMARK VINA RESULT:    -4.106      2.171      3.655
REMARK INTER + INTRA:          -5.499
REMARK INTER:                  -5.162
REMARK INTRA:                  -0.337
REMARK UNBOUND:                -0.433
REMARK  6 active torsions:
REMARK  status: ('A' for Active; 'I' for Inactive)
REMARK    1  A    between atoms: S_1  and  C_15 
REMARK    2  A    between atoms: O_3  and  C_10 
REMARK    3  A    between atoms: O_4  and  C_12 
REMARK    4  A    between atoms: O_5  and  C_13 
REMARK    5  A    between atoms: O_6  and  C_14 
REMARK    6  A    between atoms: C_11  and  C_15 
ROOT
HETATM    1  O   UNL     1      40.763  45.344  35.270  1.00  0.00    -0.328 OA
HETATM    2  C   UNL     1      41.676  43.061  35.132  1.00  0.00     0.168 C 
HETATM    3  C   UNL     1      40.541  43.966  35.672  1.00  0.00     0.166 C 
HETATM    4  C   UNL     1      41.883  43.279  33.622  1.00  0.00     0.172 C 
HETATM    5  C   UNL     1      42.040  44.758  33.273  1.00  0.00     0.197 C 
HETATM    6  C   UNL     1      40.867  45.543  33.874  1.00  0.00     0.263 C 
ENDROOT
BRANCH   3   7
HETATM    7  C   UNL     1      40.464  44.029  37.197  1.00  0.00     0.178 C 
BRANCH   7   8
HETATM    8  S   UNL     1      39.284  42.931  37.914  1.00  0.00     0.118 S 
HETATM    9  O   UNL     1      39.073  41.947  36.852  1.00  0.00    -0.594 OA
HETATM   10  O   UNL     1      39.981  42.419  39.089  1.00  0.00    -0.594 OA
HETATM   11  O   UNL     1      38.141  43.792  38.194  1.00  0.00    -0.594 OA
ENDBRANCH   7   8
ENDBRANCH   3   7
BRANCH   2  12
HETATM   12  O   UNL     1      41.456  41.653  35.262  1.00  0.00    -0.380 OA
HETATM   13  H   UNL     1      40.817  41.365  34.559  1.00  0.00     0.211 HD
ENDBRANCH   2  12
BRANCH   6  14
HETATM   14  O   UNL     1      39.651  45.179  33.232  1.00  0.00    -0.359 OA
HETATM   15  H   UNL     1      39.391  45.976  32.738  1.00  0.00     0.213 HD
ENDBRANCH   6  14
BRANCH   4  16
HETATM   16  O   UNL     1      43.046  42.533  33.213  1.00  0.00    -0.380 OA
HETATM   17  H   UNL     1      42.798  41.603  33.398  1.00  0.00     0.211 HD
ENDBRANCH   4  16
BRANCH   5  18
HETATM   18  O   UNL     1      42.069  44.955  31.847  1.00  0.00    -0.378 OA
HETATM   19  H   UNL     1      41.987  45.920  31.723  1.00  0.00     0.211 HD
ENDBRANCH   5  18
TORSDOF 6
ENDMDL
